
OS:Version,
  {8be21295-0ee6-4ef3-ac93-cdc59530d36f}, !- Handle
  3.10.0;                                 !- Version Identifier

OS:SimulationControl,
  {ee87b9df-b664-46a0-a306-35384bfc8a80}, !- Handle
  ,                                       !- Do Zone Sizing Calculation
  ,                                       !- Do System Sizing Calculation
  ,                                       !- Do Plant Sizing Calculation
  No;                                     !- Run Simulation for Sizing Periods

OS:Timestep,
  {7d3cde03-f8ea-4416-99cf-5eade298c582}, !- Handle
  1;                                      !- Number of Timesteps per Hour

OS:ShadowCalculation,
  {807fc17f-22d6-4f8a-89e1-c5298209a439}, !- Handle
  PolygonClipping,                        !- Shading Calculation Method
  ,                                       !- Shading Calculation Update Frequency Method
  20,                                     !- Shading Calculation Update Frequency
  200,                                    !- Maximum Figures in Shadow Overlap Calculations
  ,                                       !- Polygon Clipping Algorithm
  512,                                    !- Pixel Counting Resolution
  ,                                       !- Sky Diffuse Modeling Algorithm
  No,                                     !- Output External Shading Calculation Results
  No,                                     !- Disable Self-Shading Within Shading Zone Groups
  No;                                     !- Disable Self-Shading From Shading Zone Groups to Other Zones

OS:SurfaceConvectionAlgorithm:Outside,
  {420be770-ea8c-4470-a5b3-ac0d8ec9eb32}, !- Handle
  DOE-2;                                  !- Algorithm

OS:SurfaceConvectionAlgorithm:Inside,
  {844b60c3-542a-4346-a2db-62054d7e51fc}, !- Handle
  TARP;                                   !- Algorithm

OS:ZoneCapacitanceMultiplier:ResearchSpecial,
  {3579fddd-80f5-4cd1-bf4a-a2096e7b72a0}, !- Handle
  7,                                      !- Temperature Capacity Multiplier
  15,                                     !- Humidity Capacity Multiplier
  ;                                       !- Carbon Dioxide Capacity Multiplier

OS:ConvergenceLimits,
  {3fd78a7b-621c-4a5e-bb98-38cbb088419d}, !- Handle
  0;                                      !- Minimum System Timestep {minutes}

OS:RunPeriod,
  {72212a49-5774-46cb-9d2d-317ecc290ba2}, !- Handle
  Run Period 1,                           !- Name
  1,                                      !- Begin Month
  1,                                      !- Begin Day of Month
  12,                                     !- End Month
  31,                                     !- End Day of Month
  ,                                       !- Use Weather File Holidays and Special Days
  ,                                       !- Use Weather File Daylight Saving Period
  ,                                       !- Apply Weekend Holiday Rule
  ,                                       !- Use Weather File Rain Indicators
  ,                                       !- Use Weather File Snow Indicators
  ;                                       !- Number of Times Runperiod to be Repeated

OS:PerformancePrecisionTradeoffs,
  {e0570697-7bde-4e9d-9487-e2c72f68f424}, !- Handle
  ,                                       !- Use Coil Direct Solutions
  CarrollMRT;                             !- Zone Radiant Exchange Algorithm

OS:WeatherFile,
  {a1ea0cd7-6fc6-4991-87f7-1af90447dddf}, !- Handle
  Buffalo Niagara Intl Ap,                !- City
  NY,                                     !- State Province Region
  USA,                                    !- Country
  TMY3,                                   !- Data Source
  725280,                                 !- WMO Number
  42.93,                                  !- Latitude {deg}
  -78.73,                                 !- Longitude {deg}
  -5,                                     !- Time Zone {hr}
  215,                                    !- Elevation {m}
  /Users/nmoore/github/urbanopt-example-geojson-project/example_project/weather/USA_NY_Buffalo-Greater.Buffalo.Intl.AP.725280_TMY3.epw, !- Url
  6B50E0FF,                               !- Checksum
  ,                                       !- Start Date Actual Year
  Sunday;                                 !- Start Day of Week

OS:YearDescription,
  {3529db77-184f-4e58-937a-54f0338861a1}, !- Handle
  2007,                                   !- Calendar Year
  ,                                       !- Day of Week for Start Day
  ;                                       !- Is Leap Year

OS:Site,
  {454c9c56-5277-4f5c-9a54-df826afed09c}, !- Handle
  Buffalo Niagara Intl Ap_NY,             !- Name
  42.93,                                  !- Latitude {deg}
  -78.73,                                 !- Longitude {deg}
  -5,                                     !- Time Zone {hr}
  215,                                    !- Elevation {m}
  Suburbs,                                !- Terrain
  Yes;                                    !- Keep Site Location Information

OS:RunPeriodControl:DaylightSavingTime,
  {59c714d6-e3c7-4434-b872-661b1c364a02}, !- Handle
  Mar 12,                                 !- Start Date
  Nov 5;                                  !- End Date

OS:Site:GroundTemperature:Shallow,
  {aaebbaad-29ae-4523-b325-300deb8500f7}, !- Handle
  4.30207395723828,                       !- January Surface Ground Temperature {C}
  2.29327249652502,                       !- February Surface Ground Temperature {C}
  2.13240047156047,                       !- March Surface Ground Temperature {C}
  3.08567940719286,                       !- April Surface Ground Temperature {C}
  6.91256312497526,                       !- May Surface Ground Temperature {C}
  10.7216195949507,                       !- June Surface Ground Temperature {C}
  14.0238679822574,                       !- July Surface Ground Temperature {C}
  16.1157611184724,                       !- August Surface Ground Temperature {C}
  16.2934789303462,                       !- September Surface Ground Temperature {C}
  14.5920754632847,                       !- October Surface Ground Temperature {C}
  11.374036348653,                        !- November Surface Ground Temperature {C}
  7.68182621661674;                       !- December Surface Ground Temperature {C}

OS:ThermalZone,
  {0dd79128-65c2-4fa0-a0b6-15d552a2b630}, !- Handle
  conditioned space,                      !- Name
  1,                                      !- Multiplier
  ,                                       !- Ceiling Height {m}
  692.06373070848,                        !- Volume {m3}
  ,                                       !- Floor Area {m2}
  ,                                       !- Zone Inside Convection Algorithm
  ,                                       !- Zone Outside Convection Algorithm
  ,                                       !- Zone Conditioning Equipment List Name
  {35ba9ebe-5360-4a35-a6c5-ceeb1d5d5264}, !- Zone Air Inlet Port List
  {e68b0980-e892-4f00-b2b5-f79d38acac61}, !- Zone Air Exhaust Port List
  {9f0fadcd-6d55-42ed-97e2-6747dd906301}, !- Zone Air Node Name
  {ecdd588f-43a6-424c-bf70-4dde78bff8a7}, !- Zone Return Air Port List
  ,                                       !- Primary Daylighting Control Name
  ,                                       !- Fraction of Zone Controlled by Primary Daylighting Control
  ,                                       !- Secondary Daylighting Control Name
  ,                                       !- Fraction of Zone Controlled by Secondary Daylighting Control
  ,                                       !- Illuminance Map Name
  ,                                       !- Group Rendering Name
  {158cb4d7-44f7-479e-8002-c4e8ff8d5790}, !- Thermostat Name
  No;                                     !- Use Ideal Air Loads

OS:Node,
  {0a5b44ae-78bb-4bc8-8fa8-5b73ce4b8af2}, !- Handle
  Node 1,                                 !- Name
  {9f0fadcd-6d55-42ed-97e2-6747dd906301}, !- Inlet Port
  ;                                       !- Outlet Port

OS:Connection,
  {9f0fadcd-6d55-42ed-97e2-6747dd906301}, !- Handle
  {0dd79128-65c2-4fa0-a0b6-15d552a2b630}, !- Source Object
  11,                                     !- Outlet Port
  {0a5b44ae-78bb-4bc8-8fa8-5b73ce4b8af2}, !- Target Object
  2;                                      !- Inlet Port

OS:PortList,
  {35ba9ebe-5360-4a35-a6c5-ceeb1d5d5264}, !- Handle
  {0dd79128-65c2-4fa0-a0b6-15d552a2b630}, !- HVAC Component
  {9a682d10-d69b-4771-91f7-77769a6b2d55}; !- Port 1

OS:PortList,
  {e68b0980-e892-4f00-b2b5-f79d38acac61}, !- Handle
  {0dd79128-65c2-4fa0-a0b6-15d552a2b630}; !- HVAC Component

OS:PortList,
  {ecdd588f-43a6-424c-bf70-4dde78bff8a7}, !- Handle
  {0dd79128-65c2-4fa0-a0b6-15d552a2b630}, !- HVAC Component
  {21b13ccd-26e9-4725-8941-fd7df99ccfea}; !- Port 1

OS:Sizing:Zone,
  {1072078b-a325-4de6-82be-df95dd289b34}, !- Handle
  {0dd79128-65c2-4fa0-a0b6-15d552a2b630}, !- Zone or ZoneList Name
  SupplyAirTemperature,                   !- Zone Cooling Design Supply Air Temperature Input Method
  14,                                     !- Zone Cooling Design Supply Air Temperature {C}
  11.11,                                  !- Zone Cooling Design Supply Air Temperature Difference {deltaC}
  SupplyAirTemperature,                   !- Zone Heating Design Supply Air Temperature Input Method
  40,                                     !- Zone Heating Design Supply Air Temperature {C}
  11.11,                                  !- Zone Heating Design Supply Air Temperature Difference {deltaC}
  0.0085,                                 !- Zone Cooling Design Supply Air Humidity Ratio {kg-H2O/kg-air}
  0.008,                                  !- Zone Heating Design Supply Air Humidity Ratio {kg-H2O/kg-air}
  ,                                       !- Zone Heating Sizing Factor
  ,                                       !- Zone Cooling Sizing Factor
  DesignDay,                              !- Cooling Design Air Flow Method
  ,                                       !- Cooling Design Air Flow Rate {m3/s}
  ,                                       !- Cooling Minimum Air Flow per Zone Floor Area {m3/s-m2}
  ,                                       !- Cooling Minimum Air Flow {m3/s}
  ,                                       !- Cooling Minimum Air Flow Fraction
  DesignDay,                              !- Heating Design Air Flow Method
  ,                                       !- Heating Design Air Flow Rate {m3/s}
  ,                                       !- Heating Maximum Air Flow per Zone Floor Area {m3/s-m2}
  ,                                       !- Heating Maximum Air Flow {m3/s}
  ,                                       !- Heating Maximum Air Flow Fraction
  No,                                     !- Account for Dedicated Outdoor Air System
  NeutralSupplyAir,                       !- Dedicated Outdoor Air System Control Strategy
  autosize,                               !- Dedicated Outdoor Air Low Setpoint Temperature for Design {C}
  autosize,                               !- Dedicated Outdoor Air High Setpoint Temperature for Design {C}
  Sensible Load Only No Latent Load,      !- Zone Load Sizing Method
  HumidityRatioDifference,                !- Zone Latent Cooling Design Supply Air Humidity Ratio Input Method
  ,                                       !- Zone Dehumidification Design Supply Air Humidity Ratio {kgWater/kgDryAir}
  0.005,                                  !- Zone Cooling Design Supply Air Humidity Ratio Difference {kgWater/kgDryAir}
  HumidityRatioDifference,                !- Zone Latent Heating Design Supply Air Humidity Ratio Input Method
  ,                                       !- Zone Humidification Design Supply Air Humidity Ratio {kgWater/kgDryAir}
  0.005,                                  !- Zone Humidification Design Supply Air Humidity Ratio Difference {kgWater/kgDryAir}
  ,                                       !- Zone Humidistat Dehumidification Set Point Schedule Name
  ,                                       !- Zone Humidistat Humidification Set Point Schedule Name
  ,                                       !- Design Zone Air Distribution Effectiveness in Cooling Mode
  ,                                       !- Design Zone Air Distribution Effectiveness in Heating Mode
  ,                                       !- Design Zone Secondary Recirculation Fraction {dimensionless}
  ,                                       !- Design Minimum Zone Ventilation Efficiency {dimensionless}
  Coincident;                             !- Sizing Option

OS:ZoneHVAC:EquipmentList,
  {65537864-0d95-42f7-8a58-4f7558e57e95}, !- Handle
  Zone HVAC Equipment List 1,             !- Name
  {0dd79128-65c2-4fa0-a0b6-15d552a2b630}, !- Thermal Zone
  ,                                       !- Load Distribution Scheme
  {9fc9f9f7-2110-493d-9ded-ebb70413cc37}, !- Zone Equipment 1
  1,                                      !- Zone Equipment Cooling Sequence 1
  1,                                      !- Zone Equipment Heating or No-Load Sequence 1
  {23bf096a-e041-4ab8-8701-245b6d1a7309}, !- Zone Equipment Sequential Cooling Fraction Schedule Name 1
  {d5193707-9d76-4023-89d4-5fdbf7a46d79}; !- Zone Equipment Sequential Heating Fraction Schedule Name 1

OS:AdditionalProperties,
  {ac214777-06b7-43d5-ba97-a40b7581f664}, !- Handle
  {0dd79128-65c2-4fa0-a0b6-15d552a2b630}, !- Object Name
  ObjectType,                             !- Feature Name 1
  String,                                 !- Feature Data Type 1
  conditioned space;                      !- Feature Value 1

OS:Space,
  {d5e1d45a-f7b0-4a52-b074-7715090673c0}, !- Handle
  conditioned space 1,                    !- Name
  ,                                       !- Space Type Name
  ,                                       !- Default Construction Set Name
  ,                                       !- Default Schedule Set Name
  ,                                       !- Direction of Relative North {deg}
  ,                                       !- X Origin {m}
  ,                                       !- Y Origin {m}
  ,                                       !- Z Origin {m}
  ,                                       !- Building Story Name
  {0dd79128-65c2-4fa0-a0b6-15d552a2b630}, !- Thermal Zone Name
  ,                                       !- Part of Total Floor Area
  ,                                       !- Design Specification Outdoor Air Object Name
  ,                                       !- Building Unit Name
  692.06373070848;                        !- Volume {m3}

OS:Schedule:Ruleset,
  {04fe9dc4-754c-463d-987a-de70544fab7e}, !- Handle
  heating setpoint,                       !- Name
  {b8d5690d-4668-4691-8e26-ee79ecf2bcba}, !- Schedule Type Limits Name
  {90ed3d12-ac1a-4254-aff4-60de1b26edcf}; !- Default Day Schedule Name

OS:Schedule:Day,
  {90ed3d12-ac1a-4254-aff4-60de1b26edcf}, !- Handle
  heating setpoint default day,           !- Name
  {b8d5690d-4668-4691-8e26-ee79ecf2bcba}, !- Schedule Type Limits Name
  ,                                       !- Interpolate to Timestep
  24,                                     !- Hour 1
  0,                                      !- Minute 1
  0;                                      !- Value Until Time 1

OS:Schedule:Rule,
  {6bac4b60-9f4d-4b3f-9954-22bebaead78d}, !- Handle
  heating setpoint allday rule,           !- Name
  {04fe9dc4-754c-463d-987a-de70544fab7e}, !- Schedule Ruleset Name
  0,                                      !- Rule Order
  {110b5399-ae31-4996-bbc7-8eec774f7aee}, !- Day Schedule Name
  Yes,                                    !- Apply Sunday
  Yes,                                    !- Apply Monday
  Yes,                                    !- Apply Tuesday
  Yes,                                    !- Apply Wednesday
  Yes,                                    !- Apply Thursday
  Yes,                                    !- Apply Friday
  Yes,                                    !- Apply Saturday
  DateRange,                              !- Date Specification Type
  1,                                      !- Start Month
  1,                                      !- Start Day
  12,                                     !- End Month
  31;                                     !- End Day

OS:Schedule:Day,
  {110b5399-ae31-4996-bbc7-8eec774f7aee}, !- Handle
  heating setpoint day,                   !- Name
  {b8d5690d-4668-4691-8e26-ee79ecf2bcba}, !- Schedule Type Limits Name
  ,                                       !- Interpolate to Timestep
  24,                                     !- Hour 1
  0,                                      !- Minute 1
  20;                                     !- Value Until Time 1

OS:Schedule:Ruleset,
  {38016766-2f3d-4b42-8d93-79c612198e9b}, !- Handle
  cooling setpoint,                       !- Name
  {b8d5690d-4668-4691-8e26-ee79ecf2bcba}, !- Schedule Type Limits Name
  {98baa669-ca7c-4d6b-8f04-b137eea28d28}; !- Default Day Schedule Name

OS:Schedule:Day,
  {98baa669-ca7c-4d6b-8f04-b137eea28d28}, !- Handle
  cooling setpoint default day,           !- Name
  {b8d5690d-4668-4691-8e26-ee79ecf2bcba}, !- Schedule Type Limits Name
  ,                                       !- Interpolate to Timestep
  24,                                     !- Hour 1
  0,                                      !- Minute 1
  0;                                      !- Value Until Time 1

OS:Schedule:Rule,
  {3b4cd636-4f90-4eed-971d-ff44d45e4700}, !- Handle
  cooling setpoint allday rule,           !- Name
  {38016766-2f3d-4b42-8d93-79c612198e9b}, !- Schedule Ruleset Name
  0,                                      !- Rule Order
  {b9010482-d9e0-46f5-8d8e-b77dc206760b}, !- Day Schedule Name
  Yes,                                    !- Apply Sunday
  Yes,                                    !- Apply Monday
  Yes,                                    !- Apply Tuesday
  Yes,                                    !- Apply Wednesday
  Yes,                                    !- Apply Thursday
  Yes,                                    !- Apply Friday
  Yes,                                    !- Apply Saturday
  DateRange,                              !- Date Specification Type
  1,                                      !- Start Month
  1,                                      !- Start Day
  12,                                     !- End Month
  31;                                     !- End Day

OS:Schedule:Day,
  {b9010482-d9e0-46f5-8d8e-b77dc206760b}, !- Handle
  cooling setpoint day,                   !- Name
  {b8d5690d-4668-4691-8e26-ee79ecf2bcba}, !- Schedule Type Limits Name
  ,                                       !- Interpolate to Timestep
  24,                                     !- Hour 1
  0,                                      !- Minute 1
  25.5555555555556;                       !- Value Until Time 1

OS:ThermostatSetpoint:DualSetpoint,
  {158cb4d7-44f7-479e-8002-c4e8ff8d5790}, !- Handle
  conditioned space temperature setpoint, !- Name
  {04fe9dc4-754c-463d-987a-de70544fab7e}, !- Heating Setpoint Temperature Schedule Name
  {38016766-2f3d-4b42-8d93-79c612198e9b}, !- Cooling Setpoint Temperature Schedule Name
  0;                                      !- Temperature Difference Between Cutout And Setpoint {deltaC}

OS:ScheduleTypeLimits,
  {b8d5690d-4668-4691-8e26-ee79ecf2bcba}, !- Handle
  Temperature,                            !- Name
  ,                                       !- Lower Limit Value
  ,                                       !- Upper Limit Value
  Continuous,                             !- Numeric Type
  Temperature;                            !- Unit Type

OS:Surface,
  {8066e37f-af35-4847-80ec-9696f4f8ff49}, !- Handle
  Roof1,                                  !- Name
  RoofCeiling,                            !- Surface Type
  {95587bba-369a-45b5-90d3-ce0ea3abefe4}, !- Construction Name
  {760638aa-41d9-489e-90aa-f5b5e2c39cf2}, !- Space Name
  Outdoors,                               !- Outside Boundary Condition
  ,                                       !- Outside Boundary Condition Object
  SunExposed,                             !- Sun Exposure
  WindExposed,                            !- Wind Exposure
  ,                                       !- View Factor to Ground
  ,                                       !- Number of Vertices
  -26.9347048849634, 58.0557891618865, 2.4384, !- X,Y,Z Vertex 1 {m}
  -26.9347048849634, 46.7895631136661, 8.0715130241102, !- X,Y,Z Vertex 2 {m}
  -14.3386812381136, 46.7895631136661, 8.0715130241102, !- X,Y,Z Vertex 3 {m}
  -14.3386812381136, 58.0557891618865, 2.4384; !- X,Y,Z Vertex 4 {m}

OS:AdditionalProperties,
  {50e12e26-de0c-4592-a83e-05dbeeeecef1}, !- Handle
  {8066e37f-af35-4847-80ec-9696f4f8ff49}, !- Object Name
  Length,                                 !- Feature Name 1
  Double,                                 !- Feature Data Type 1
  41.325536899113608,                     !- Feature Value 1
  Width,                                  !- Feature Name 2
  Double,                                 !- Feature Data Type 2
  41.325536899113601,                     !- Feature Value 2
  Azimuth,                                !- Feature Name 3
  Integer,                                !- Feature Data Type 3
  0,                                      !- Feature Value 3
  Tilt,                                   !- Feature Name 4
  Double,                                 !- Feature Data Type 4
  0.5,                                    !- Feature Value 4
  SurfaceType,                            !- Feature Name 5
  String,                                 !- Feature Data Type 5
  Roof;                                   !- Feature Value 5

OS:ThermalZone,
  {3b04d893-e04e-448e-9ec5-caee6ada0a96}, !- Handle
  attic - vented,                         !- Name
  1,                                      !- Multiplier
  ,                                       !- Ceiling Height {m}
  356.390921899745,                       !- Volume {m3}
  ,                                       !- Floor Area {m2}
  ,                                       !- Zone Inside Convection Algorithm
  ,                                       !- Zone Outside Convection Algorithm
  ,                                       !- Zone Conditioning Equipment List Name
  {987ad708-c666-47ab-b3e8-23e76ed14504}, !- Zone Air Inlet Port List
  {f01a9c96-fe7b-4de8-a64a-821fe4cde25d}, !- Zone Air Exhaust Port List
  {7f40d46f-e5f6-42fe-94e0-dc48aa76cf0f}, !- Zone Air Node Name
  {3914e2dc-61d4-4be1-bb2b-21db80aa49d4}, !- Zone Return Air Port List
  ,                                       !- Primary Daylighting Control Name
  ,                                       !- Fraction of Zone Controlled by Primary Daylighting Control
  ,                                       !- Secondary Daylighting Control Name
  ,                                       !- Fraction of Zone Controlled by Secondary Daylighting Control
  ,                                       !- Illuminance Map Name
  ,                                       !- Group Rendering Name
  ,                                       !- Thermostat Name
  No;                                     !- Use Ideal Air Loads

OS:Node,
  {ca1f51ef-1001-4574-bbb9-a1833184122d}, !- Handle
  Node 2,                                 !- Name
  {7f40d46f-e5f6-42fe-94e0-dc48aa76cf0f}, !- Inlet Port
  ;                                       !- Outlet Port

OS:Connection,
  {7f40d46f-e5f6-42fe-94e0-dc48aa76cf0f}, !- Handle
  {3b04d893-e04e-448e-9ec5-caee6ada0a96}, !- Source Object
  11,                                     !- Outlet Port
  {ca1f51ef-1001-4574-bbb9-a1833184122d}, !- Target Object
  2;                                      !- Inlet Port

OS:PortList,
  {987ad708-c666-47ab-b3e8-23e76ed14504}, !- Handle
  {3b04d893-e04e-448e-9ec5-caee6ada0a96}; !- HVAC Component

OS:PortList,
  {f01a9c96-fe7b-4de8-a64a-821fe4cde25d}, !- Handle
  {3b04d893-e04e-448e-9ec5-caee6ada0a96}; !- HVAC Component

OS:PortList,
  {3914e2dc-61d4-4be1-bb2b-21db80aa49d4}, !- Handle
  {3b04d893-e04e-448e-9ec5-caee6ada0a96}; !- HVAC Component

OS:Sizing:Zone,
  {5f720d0a-463d-406c-8aa1-a587b69942bf}, !- Handle
  {3b04d893-e04e-448e-9ec5-caee6ada0a96}, !- Zone or ZoneList Name
  SupplyAirTemperature,                   !- Zone Cooling Design Supply Air Temperature Input Method
  14,                                     !- Zone Cooling Design Supply Air Temperature {C}
  11.11,                                  !- Zone Cooling Design Supply Air Temperature Difference {deltaC}
  SupplyAirTemperature,                   !- Zone Heating Design Supply Air Temperature Input Method
  40,                                     !- Zone Heating Design Supply Air Temperature {C}
  11.11,                                  !- Zone Heating Design Supply Air Temperature Difference {deltaC}
  0.0085,                                 !- Zone Cooling Design Supply Air Humidity Ratio {kg-H2O/kg-air}
  0.008,                                  !- Zone Heating Design Supply Air Humidity Ratio {kg-H2O/kg-air}
  ,                                       !- Zone Heating Sizing Factor
  ,                                       !- Zone Cooling Sizing Factor
  DesignDay,                              !- Cooling Design Air Flow Method
  ,                                       !- Cooling Design Air Flow Rate {m3/s}
  ,                                       !- Cooling Minimum Air Flow per Zone Floor Area {m3/s-m2}
  ,                                       !- Cooling Minimum Air Flow {m3/s}
  ,                                       !- Cooling Minimum Air Flow Fraction
  DesignDay,                              !- Heating Design Air Flow Method
  ,                                       !- Heating Design Air Flow Rate {m3/s}
  ,                                       !- Heating Maximum Air Flow per Zone Floor Area {m3/s-m2}
  ,                                       !- Heating Maximum Air Flow {m3/s}
  ,                                       !- Heating Maximum Air Flow Fraction
  No,                                     !- Account for Dedicated Outdoor Air System
  NeutralSupplyAir,                       !- Dedicated Outdoor Air System Control Strategy
  autosize,                               !- Dedicated Outdoor Air Low Setpoint Temperature for Design {C}
  autosize,                               !- Dedicated Outdoor Air High Setpoint Temperature for Design {C}
  Sensible Load Only No Latent Load,      !- Zone Load Sizing Method
  HumidityRatioDifference,                !- Zone Latent Cooling Design Supply Air Humidity Ratio Input Method
  ,                                       !- Zone Dehumidification Design Supply Air Humidity Ratio {kgWater/kgDryAir}
  0.005,                                  !- Zone Cooling Design Supply Air Humidity Ratio Difference {kgWater/kgDryAir}
  HumidityRatioDifference,                !- Zone Latent Heating Design Supply Air Humidity Ratio Input Method
  ,                                       !- Zone Humidification Design Supply Air Humidity Ratio {kgWater/kgDryAir}
  0.005,                                  !- Zone Humidification Design Supply Air Humidity Ratio Difference {kgWater/kgDryAir}
  ,                                       !- Zone Humidistat Dehumidification Set Point Schedule Name
  ,                                       !- Zone Humidistat Humidification Set Point Schedule Name
  ,                                       !- Design Zone Air Distribution Effectiveness in Cooling Mode
  ,                                       !- Design Zone Air Distribution Effectiveness in Heating Mode
  ,                                       !- Design Zone Secondary Recirculation Fraction {dimensionless}
  ,                                       !- Design Minimum Zone Ventilation Efficiency {dimensionless}
  Coincident;                             !- Sizing Option

OS:ZoneHVAC:EquipmentList,
  {71e8cad0-5a44-4db9-af28-e9ccef592e73}, !- Handle
  Zone HVAC Equipment List 2,             !- Name
  {3b04d893-e04e-448e-9ec5-caee6ada0a96}; !- Thermal Zone

OS:AdditionalProperties,
  {b56633ff-db5b-436e-9390-9af47b2ac256}, !- Handle
  {3b04d893-e04e-448e-9ec5-caee6ada0a96}, !- Object Name
  ObjectType,                             !- Feature Name 1
  String,                                 !- Feature Data Type 1
  attic - vented;                         !- Feature Value 1

OS:Space,
  {760638aa-41d9-489e-90aa-f5b5e2c39cf2}, !- Handle
  attic - vented 1,                       !- Name
  ,                                       !- Space Type Name
  ,                                       !- Default Construction Set Name
  ,                                       !- Default Schedule Set Name
  ,                                       !- Direction of Relative North {deg}
  ,                                       !- X Origin {m}
  ,                                       !- Y Origin {m}
  ,                                       !- Z Origin {m}
  ,                                       !- Building Story Name
  {3b04d893-e04e-448e-9ec5-caee6ada0a96}, !- Thermal Zone Name
  ,                                       !- Part of Total Floor Area
  ,                                       !- Design Specification Outdoor Air Object Name
  ,                                       !- Building Unit Name
  356.390921899745;                       !- Volume {m3}

OS:Material,
  {cf3f704a-0fe0-4625-a525-77cfe2b0abaf}, !- Handle
  asphalt or fiberglass shingles,         !- Name
  Rough,                                  !- Roughness
  0.00635,                                !- Thickness {m}
  0.162714,                               !- Conductivity {W/m-K}
  1121.4,                                 !- Density {kg/m3}
  1465.45,                                !- Specific Heat {J/kg-K}
  0.9,                                    !- Thermal Absorptance
  0.85,                                   !- Solar Absorptance