
OS:Version,
  {baf05b8c-a1d5-4bd7-9849-aaf07e48ffdc}, !- Handle
  3.9.0;                                  !- Version Identifier

OS:SimulationControl,
  {ba0037ef-79c0-44dc-b0a2-ac9ba92e569a}, !- Handle
  ,                                       !- Do Zone Sizing Calculation
  ,                                       !- Do System Sizing Calculation
  ,                                       !- Do Plant Sizing Calculation
  No;                                     !- Run Simulation for Sizing Periods

OS:Timestep,
  {4964e8ac-8842-4dcf-9949-35203b2075da}, !- Handle
  1;                                      !- Number of Timesteps per Hour

OS:ShadowCalculation,
  {3f35e641-7fc6-460c-ac80-df0f526618ae}, !- Handle
  PolygonClipping,                        !- Shading Calculation Method
  ,                                       !- Shading Calculation Update Frequency Method
  20,                                     !- Shading Calculation Update Frequency
  200,                                    !- Maximum Figures in Shadow Overlap Calculations
  ,                                       !- Polygon Clipping Algorithm
  512,                                    !- Pixel Counting Resolution
  ,                                       !- Sky Diffuse Modeling Algorithm
  No,                                     !- Output External Shading Calculation Results
  No,                                     !- Disable Self-Shading Within Shading Zone Groups
  No;                                     !- Disable Self-Shading From Shading Zone Groups to Other Zones

OS:SurfaceConvectionAlgorithm:Outside,
  {ae703f89-2809-410e-bfb0-9afca9b2c14a}, !- Handle
  DOE-2;                                  !- Algorithm

OS:SurfaceConvectionAlgorithm:Inside,
  {270f5555-dc42-4c1c-a78c-36a2cb115cfd}, !- Handle
  TARP;                                   !- Algorithm

OS:ZoneCapacitanceMultiplier:ResearchSpecial,
  {68c32790-2a40-4708-99cb-58b7630f2d8f}, !- Handle
  7,                                      !- Temperature Capacity Multiplier
  15,                                     !- Humidity Capacity Multiplier
  ;                                       !- Carbon Dioxide Capacity Multiplier

OS:ConvergenceLimits,
  {029ab4c2-40dd-4dfb-9b90-0d4bc9155821}, !- Handle
  0;                                      !- Minimum System Timestep {minutes}

OS:RunPeriod,
  {7055e645-f813-4ddb-8968-cdde81b6a6bf}, !- Handle
  Run Period 1,                           !- Name
  1,                                      !- Begin Month
  1,                                      !- Begin Day of Month
  12,                                     !- End Month
  31,                                     !- End Day of Month
  ,                                       !- Use Weather File Holidays and Special Days
  ,                                       !- Use Weather File Daylight Saving Period
  ,                                       !- Apply Weekend Holiday Rule
  ,                                       !- Use Weather File Rain Indicators
  ,                                       !- Use Weather File Snow Indicators
  ;                                       !- Number of Times Runperiod to be Repeated

OS:PerformancePrecisionTradeoffs,
  {321d9ca9-ac67-4b17-a842-01daded4ca90}, !- Handle
  ,                                       !- Use Coil Direct Solutions
  CarrollMRT;                             !- Zone Radiant Exchange Algorithm

OS:WeatherFile,
  {976b98aa-de84-4810-b651-f3a92a18fc67}, !- Handle
  Buffalo Niagara Intl Ap,                !- City
  NY,                                     !- State Province Region
  USA,                                    !- Country
  TMY3,                                   !- Data Source
  725280,                                 !- WMO Number
  42.93,                                  !- Latitude {deg}
  -78.73,                                 !- Longitude {deg}
  -5,                                     !- Time Zone {hr}
  215,                                    !- Elevation {m}
  /Users/nmoore/github/urbanopt-example-geojson-project/example_project/weather/USA_NY_Buffalo-Greater.Buffalo.Intl.AP.725280_TMY3.epw, !- Url
  6B50E0FF,                               !- Checksum
  ,                                       !- Start Date Actual Year
  Sunday;                                 !- Start Day of Week

OS:YearDescription,
  {dd69bfe5-24fb-4ed4-af34-ed2fb98f9311}, !- Handle
  2007,                                   !- Calendar Year
  ,                                       !- Day of Week for Start Day
  ;                                       !- Is Leap Year

OS:Site,
  {a1abc719-d884-44ad-b804-9a2737f1bcd6}, !- Handle
  Buffalo Niagara Intl Ap_NY,             !- Name
  42.93,                                  !- Latitude {deg}
  -78.73,                                 !- Longitude {deg}
  -5,                                     !- Time Zone {hr}
  215,                                    !- Elevation {m}
  Suburbs,                                !- Terrain
  Yes;                                    !- Keep Site Location Information

OS:RunPeriodControl:DaylightSavingTime,
  {6cd4692b-36d6-415b-9997-3cffbc2b16b0}, !- Handle
  Mar 12,                                 !- Start Date
  Nov 5;                                  !- End Date

OS:Site:GroundTemperature:Shallow,
  {06c521a1-c170-4a67-aded-46dceefefe2d}, !- Handle
  4.30207395723828,                       !- January Surface Ground Temperature {C}
  2.29327249652502,                       !- February Surface Ground Temperature {C}
  2.13240047156047,                       !- March Surface Ground Temperature {C}
  3.08567940719286,                       !- April Surface Ground Temperature {C}
  6.91256312497526,                       !- May Surface Ground Temperature {C}
  10.7216195949507,                       !- June Surface Ground Temperature {C}
  14.0238679822574,                       !- July Surface Ground Temperature {C}
  16.1157611184724,                       !- August Surface Ground Temperature {C}
  16.2934789303462,                       !- September Surface Ground Temperature {C}
  14.5920754632847,                       !- October Surface Ground Temperature {C}
  11.374036348653,                        !- November Surface Ground Temperature {C}
  7.68182621661674;                       !- December Surface Ground Temperature {C}

OS:ThermalZone,
  {61099cab-e3a5-4617-8de1-407bce364ff8}, !- Handle
  conditioned space,                      !- Name
  1,                                      !- Multiplier
  ,                                       !- Ceiling Height {m}
  692.06373070848,                        !- Volume {m3}
  ,                                       !- Floor Area {m2}
  ,                                       !- Zone Inside Convection Algorithm
  ,                                       !- Zone Outside Convection Algorithm
  ,                                       !- Zone Conditioning Equipment List Name
  {43423957-8047-4a05-b8fd-c0ae62735c30}, !- Zone Air Inlet Port List
  {94ffa77a-5236-48b8-af22-285ac99c5dbf}, !- Zone Air Exhaust Port List
  {f2c7e5da-9a5d-47d6-9e1b-190220656b46}, !- Zone Air Node Name
  {98d00d02-ac93-488a-afc4-04e00c95f18b}, !- Zone Return Air Port List
  ,                                       !- Primary Daylighting Control Name
  ,                                       !- Fraction of Zone Controlled by Primary Daylighting Control
  ,                                       !- Secondary Daylighting Control Name
  ,                                       !- Fraction of Zone Controlled by Secondary Daylighting Control
  ,                                       !- Illuminance Map Name
  ,                                       !- Group Rendering Name
  {0b2267db-1304-40b5-a224-cdf643db5f1e}, !- Thermostat Name
  No;                                     !- Use Ideal Air Loads

OS:Node,
  {43ebd5af-4b5c-4e2f-bf7a-2fcb0cd0f29c}, !- Handle
  Node 1,                                 !- Name
  {f2c7e5da-9a5d-47d6-9e1b-190220656b46}, !- Inlet Port
  ;                                       !- Outlet Port

OS:Connection,
  {f2c7e5da-9a5d-47d6-9e1b-190220656b46}, !- Handle
  {61099cab-e3a5-4617-8de1-407bce364ff8}, !- Source Object
  11,                                     !- Outlet Port
  {43ebd5af-4b5c-4e2f-bf7a-2fcb0cd0f29c}, !- Target Object
  2;                                      !- Inlet Port

OS:PortList,
  {43423957-8047-4a05-b8fd-c0ae62735c30}, !- Handle
  {61099cab-e3a5-4617-8de1-407bce364ff8}, !- HVAC Component
  {b02bac47-83f2-44e1-a72b-bd62feb2a4d1}; !- Port 1

OS:PortList,
  {94ffa77a-5236-48b8-af22-285ac99c5dbf}, !- Handle
  {61099cab-e3a5-4617-8de1-407bce364ff8}; !- HVAC Component

OS:PortList,
  {98d00d02-ac93-488a-afc4-04e00c95f18b}, !- Handle
  {61099cab-e3a5-4617-8de1-407bce364ff8}, !- HVAC Component
  {2b2ff993-42b7-4938-8231-b2cdafa8a4cb}; !- Port 1

OS:Sizing:Zone,
  {c7845453-91f0-4f0d-ad75-98a296450c73}, !- Handle
  {61099cab-e3a5-4617-8de1-407bce364ff8}, !- Zone or ZoneList Name
  SupplyAirTemperature,                   !- Zone Cooling Design Supply Air Temperature Input Method
  14,                                     !- Zone Cooling Design Supply Air Temperature {C}
  11.11,                                  !- Zone Cooling Design Supply Air Temperature Difference {deltaC}
  SupplyAirTemperature,                   !- Zone Heating Design Supply Air Temperature Input Method
  40,                                     !- Zone Heating Design Supply Air Temperature {C}
  11.11,                                  !- Zone Heating Design Supply Air Temperature Difference {deltaC}
  0.0085,                                 !- Zone Cooling Design Supply Air Humidity Ratio {kg-H2O/kg-air}
  0.008,                                  !- Zone Heating Design Supply Air Humidity Ratio {kg-H2O/kg-air}
  ,                                       !- Zone Heating Sizing Factor
  ,                                       !- Zone Cooling Sizing Factor
  DesignDay,                              !- Cooling Design Air Flow Method
  ,                                       !- Cooling Design Air Flow Rate {m3/s}
  ,                                       !- Cooling Minimum Air Flow per Zone Floor Area {m3/s-m2}
  ,                                       !- Cooling Minimum Air Flow {m3/s}
  ,                                       !- Cooling Minimum Air Flow Fraction
  DesignDay,                              !- Heating Design Air Flow Method
  ,                                       !- Heating Design Air Flow Rate {m3/s}
  ,                                       !- Heating Maximum Air Flow per Zone Floor Area {m3/s-m2}
  ,                                       !- Heating Maximum Air Flow {m3/s}
  ,                                       !- Heating Maximum Air Flow Fraction
  No,                                     !- Account for Dedicated Outdoor Air System
  NeutralSupplyAir,                       !- Dedicated Outdoor Air System Control Strategy
  autosize,                               !- Dedicated Outdoor Air Low Setpoint Temperature for Design {C}
  autosize,                               !- Dedicated Outdoor Air High Setpoint Temperature for Design {C}
  Sensible Load Only No Latent Load,      !- Zone Load Sizing Method
  HumidityRatioDifference,                !- Zone Latent Cooling Design Supply Air Humidity Ratio Input Method
  ,                                       !- Zone Dehumidification Design Supply Air Humidity Ratio {kgWater/kgDryAir}
  0.005,                                  !- Zone Cooling Design Supply Air Humidity Ratio Difference {kgWater/kgDryAir}
  HumidityRatioDifference,                !- Zone Latent Heating Design Supply Air Humidity Ratio Input Method
  ,                                       !- Zone Humidification Design Supply Air Humidity Ratio {kgWater/kgDryAir}
  0.005,                                  !- Zone Humidification Design Supply Air Humidity Ratio Difference {kgWater/kgDryAir}
  ,                                       !- Zone Humidistat Dehumidification Set Point Schedule Name
  ,                                       !- Zone Humidistat Humidification Set Point Schedule Name
  ,                                       !- Design Zone Air Distribution Effectiveness in Cooling Mode
  ,                                       !- Design Zone Air Distribution Effectiveness in Heating Mode
  ,                                       !- Design Zone Secondary Recirculation Fraction {dimensionless}
  ,                                       !- Design Minimum Zone Ventilation Efficiency {dimensionless}
  Coincident;                             !- Sizing Option

OS:ZoneHVAC:EquipmentList,
  {719188eb-4737-4533-98d6-65159ea0a288}, !- Handle
  Zone HVAC Equipment List 1,             !- Name
  {61099cab-e3a5-4617-8de1-407bce364ff8}, !- Thermal Zone
  ,                                       !- Load Distribution Scheme
  {54234ce6-30fb-420f-a73b-3c6c44a57a1c}, !- Zone Equipment 1
  1,                                      !- Zone Equipment Cooling Sequence 1
  1,                                      !- Zone Equipment Heating or No-Load Sequence 1
  {82bcf87e-cffa-433d-8f74-2c323ae8e63d}, !- Zone Equipment Sequential Cooling Fraction Schedule Name 1
  {6737be3a-eaf1-4740-9c0c-13099d6182e3}; !- Zone Equipment Sequential Heating Fraction Schedule Name 1

OS:AdditionalProperties,
  {46bb9bee-ca41-4479-891b-cf14d7830f35}, !- Handle
  {61099cab-e3a5-4617-8de1-407bce364ff8}, !- Object Name
  ObjectType,                             !- Feature Name 1
  String,                                 !- Feature Data Type 1
  conditioned space;                      !- Feature Value 1

OS:Space,
  {a79d62c3-00bf-4f52-b3dd-71856d6f8f7b}, !- Handle
  conditioned space 1,                    !- Name
  ,                                       !- Space Type Name
  ,                                       !- Default Construction Set Name
  ,                                       !- Default Schedule Set Name
  ,                                       !- Direction of Relative North {deg}
  ,                                       !- X Origin {m}
  ,                                       !- Y Origin {m}
  ,                                       !- Z Origin {m}
  ,                                       !- Building Story Name
  {61099cab-e3a5-4617-8de1-407bce364ff8}, !- Thermal Zone Name
  ,                                       !- Part of Total Floor Area
  ,                                       !- Design Specification Outdoor Air Object Name
  ,                                       !- Building Unit Name
  692.06373070848;                        !- Volume {m3}

OS:Schedule:Ruleset,
  {38f78b68-a9d1-48c8-a31e-282991e29ef0}, !- Handle
  heating setpoint,                       !- Name
  {d3926b93-4e66-4b78-bb43-f34367642ca1}, !- Schedule Type Limits Name
  {833a20ae-06a1-481e-8718-a620ced25383}; !- Default Day Schedule Name

OS:Schedule:Day,
  {833a20ae-06a1-481e-8718-a620ced25383}, !- Handle
  heating setpoint default day,           !- Name
  {d3926b93-4e66-4b78-bb43-f34367642ca1}, !- Schedule Type Limits Name
  ,                                       !- Interpolate to Timestep
  24,                                     !- Hour 1
  0,                                      !- Minute 1
  0;                                      !- Value Until Time 1

OS:Schedule:Rule,
  {f18d2ee3-82f1-4c30-a16e-49145d943b41}, !- Handle
  heating setpoint allday rule,           !- Name
  {38f78b68-a9d1-48c8-a31e-282991e29ef0}, !- Schedule Ruleset Name
  0,                                      !- Rule Order
  {ee83df04-9cc2-40bf-9ff5-efafb6dda518}, !- Day Schedule Name
  Yes,                                    !- Apply Sunday
  Yes,                                    !- Apply Monday
  Yes,                                    !- Apply Tuesday
  Yes,                                    !- Apply Wednesday
  Yes,                                    !- Apply Thursday
  Yes,                                    !- Apply Friday
  Yes,                                    !- Apply Saturday
  DateRange,                              !- Date Specification Type
  1,                                      !- Start Month
  1,                                      !- Start Day
  12,                                     !- End Month
  31;                                     !- End Day

OS:Schedule:Day,
  {ee83df04-9cc2-40bf-9ff5-efafb6dda518}, !- Handle
  heating setpoint day,                   !- Name
  {d3926b93-4e66-4b78-bb43-f34367642ca1}, !- Schedule Type Limits Name
  ,                                       !- Interpolate to Timestep
  24,                                     !- Hour 1
  0,                                      !- Minute 1
  20;                                     !- Value Until Time 1

OS:Schedule:Ruleset,
  {79ca0575-2e34-4a8e-a47e-72e0c8ec5829}, !- Handle
  cooling setpoint,                       !- Name
  {d3926b93-4e66-4b78-bb43-f34367642ca1}, !- Schedule Type Limits Name
  {8fc3057e-0fa6-4fd1-afcc-69fee441e6d4}; !- Default Day Schedule Name

OS:Schedule:Day,
  {8fc3057e-0fa6-4fd1-afcc-69fee441e6d4}, !- Handle
  cooling setpoint default day,           !- Name
  {d3926b93-4e66-4b78-bb43-f34367642ca1}, !- Schedule Type Limits Name
  ,                                       !- Interpolate to Timestep
  24,                                     !- Hour 1
  0,                                      !- Minute 1
  0;                                      !- Value Until Time 1

OS:Schedule:Rule,
  {ce379f55-d72a-4b9a-a4b4-6f25745cf0b4}, !- Handle
  cooling setpoint allday rule,           !- Name
  {79ca0575-2e34-4a8e-a47e-72e0c8ec5829}, !- Schedule Ruleset Name
  0,                                      !- Rule Order
  {5d834361-f036-4d1c-894e-2f1712d1f791}, !- Day Schedule Name
  Yes,                                    !- Apply Sunday
  Yes,                                    !- Apply Monday
  Yes,                                    !- Apply Tuesday
  Yes,                                    !- Apply Wednesday
  Yes,                                    !- Apply Thursday
  Yes,                                    !- Apply Friday
  Yes,                                    !- Apply Saturday
  DateRange,                              !- Date Specification Type
  1,                                      !- Start Month
  1,                                      !- Start Day
  12,                                     !- End Month
  31;                                     !- End Day

OS:Schedule:Day,
  {5d834361-f036-4d1c-894e-2f1712d1f791}, !- Handle
  cooling setpoint day,                   !- Name
  {d3926b93-4e66-4b78-bb43-f34367642ca1}, !- Schedule Type Limits Name
  ,                                       !- Interpolate to Timestep
  24,                                     !- Hour 1
  0,                                      !- Minute 1
  25.5555555555556;                       !- Value Until Time 1

OS:ThermostatSetpoint:DualSetpoint,
  {0b2267db-1304-40b5-a224-cdf643db5f1e}, !- Handle
  conditioned space temperature setpoint, !- Name
  {38f78b68-a9d1-48c8-a31e-282991e29ef0}, !- Heating Setpoint Temperature Schedule Name
  {79ca0575-2e34-4a8e-a47e-72e0c8ec5829}, !- Cooling Setpoint Temperature Schedule Name
  0;                                      !- Temperature Difference Between Cutout And Setpoint {deltaC}

OS:ScheduleTypeLimits,
  {d3926b93-4e66-4b78-bb43-f34367642ca1}, !- Handle
  Temperature,                            !- Name
  ,                                       !- Lower Limit Value
  ,                                       !- Upper Limit Value
  Continuous,                             !- Numeric Type
  Temperature;                            !- Unit Type

OS:Surface,
  {75ae73ef-391d-4771-b16b-b66cf9f1fc35}, !- Handle
  Roof1,                                  !- Name
  RoofCeiling,                            !- Surface Type
  {70fdd76d-c004-4de8-ba0c-74281698af8c}, !- Construction Name
  {d3d33d19-a4cc-48eb-8684-43efc9a77bc2}, !- Space Name
  Outdoors,                               !- Outside Boundary Condition
  ,                                       !- Outside Boundary Condition Object
  SunExposed,                             !- Sun Exposure
  WindExposed,                            !- Wind Exposure
  ,                                       !- View Factor to Ground
  ,                                       !- Number of Vertices
  -26.9347048849634, 58.0557891618865, 2.4384, !- X,Y,Z Vertex 1 {m}
  -26.9347048849634, 46.7895631136661, 8.0715130241102, !- X,Y,Z Vertex 2 {m}
  -14.3386812381136, 46.7895631136661, 8.0715130241102, !- X,Y,Z Vertex 3 {m}
  -14.3386812381136, 58.0557891618865, 2.4384; !- X,Y,Z Vertex 4 {m}

OS:AdditionalProperties,
  {d53c54f6-25e9-44fc-83cf-025c02c2ec71}, !- Handle
  {75ae73ef-391d-4771-b16b-b66cf9f1fc35}, !- Object Name
  Length,                                 !- Feature Name 1
  Double,                                 !- Feature Data Type 1
  41.325536899113608,                     !- Feature Value 1
  Width,                                  !- Feature Name 2
  Double,                                 !- Feature Data Type 2
  41.325536899113601,                     !- Feature Value 2
  Azimuth,                                !- Feature Name 3
  Integer,                                !- Feature Data Type 3
  0,                                      !- Feature Value 3
  Tilt,                                   !- Feature Name 4
  Double,                                 !- Feature Data Type 4
  0.5,                                    !- Feature Value 4
  SurfaceType,                            !- Feature Name 5
  String,                                 !- Feature Data Type 5
  Roof;                                   !- Feature Value 5

OS:ThermalZone,
  {abf7b3ea-0bd5-4236-8ef3-4d5d5429d86f}, !- Handle
  attic - vented,                         !- Name
  1,                                      !- Multiplier
  ,                                       !- Ceiling Height {m}
  356.389957095237,                       !- Volume {m3}
  ,                                       !- Floor Area {m2}
  ,                                       !- Zone Inside Convection Algorithm
  ,                                       !- Zone Outside Convection Algorithm
  ,                                       !- Zone Conditioning Equipment List Name
  {8522c934-fced-4149-96c8-299b9ab208a8}, !- Zone Air Inlet Port List
  {89ffbc10-43ca-486b-99d5-d57f3aeb6ce4}, !- Zone Air Exhaust Port List
  {12438723-c11f-4250-81ae-0e880df9ea3f}, !- Zone Air Node Name
  {f013dfbe-cafa-4fc3-abbe-fa9cffdd6d62}, !- Zone Return Air Port List
  ,                                       !- Primary Daylighting Control Name
  ,                                       !- Fraction of Zone Controlled by Primary Daylighting Control
  ,                                       !- Secondary Daylighting Control Name
  ,                                       !- Fraction of Zone Controlled by Secondary Daylighting Control
  ,                                       !- Illuminance Map Name
  ,                                       !- Group Rendering Name
  ,                                       !- Thermostat Name
  No;                                     !- Use Ideal Air Loads

OS:Node,
  {d6e5cd87-1aed-4297-a027-c1aa7268e6a6}, !- Handle
  Node 2,                                 !- Name
  {12438723-c11f-4250-81ae-0e880df9ea3f}, !- Inlet Port
  ;                                       !- Outlet Port

OS:Connection,
  {12438723-c11f-4250-81ae-0e880df9ea3f}, !- Handle
  {abf7b3ea-0bd5-4236-8ef3-4d5d5429d86f}, !- Source Object
  11,                                     !- Outlet Port
  {d6e5cd87-1aed-4297-a027-c1aa7268e6a6}, !- Target Object
  2;                                      !- Inlet Port

OS:PortList,
  {8522c934-fced-4149-96c8-299b9ab208a8}, !- Handle
  {abf7b3ea-0bd5-4236-8ef3-4d5d5429d86f}; !- HVAC Component

OS:PortList,
  {89ffbc10-43ca-486b-99d5-d57f3aeb6ce4}, !- Handle
  {abf7b3ea-0bd5-4236-8ef3-4d5d5429d86f}; !- HVAC Component

OS:PortList,
  {f013dfbe-cafa-4fc3-abbe-fa9cffdd6d62}, !- Handle
  {abf7b3ea-0bd5-4236-8ef3-4d5d5429d86f}; !- HVAC Component

OS:Sizing:Zone,
  {7128c066-92e1-4131-ad7d-fba38a4bca62}, !- Handle
  {abf7b3ea-0bd5-4236-8ef3-4d5d5429d86f}, !- Zone or ZoneList Name
  SupplyAirTemperature,                   !- Zone Cooling Design Supply Air Temperature Input Method
  14,                                     !- Zone Cooling Design Supply Air Temperature {C}
  11.11,                                  !- Zone Cooling Design Supply Air Temperature Difference {deltaC}
  SupplyAirTemperature,                   !- Zone Heating Design Supply Air Temperature Input Method
  40,                                     !- Zone Heating Design Supply Air Temperature {C}
  11.11,                                  !- Zone Heating Design Supply Air Temperature Difference {deltaC}
  0.0085,                                 !- Zone Cooling Design Supply Air Humidity Ratio {kg-H2O/kg-air}
  0.008,                                  !- Zone Heating Design Supply Air Humidity Ratio {kg-H2O/kg-air}
  ,                                       !- Zone Heating Sizing Factor
  ,                                       !- Zone Cooling Sizing Factor
  DesignDay,                              !- Cooling Design Air Flow Method
  ,                                       !- Cooling Design Air Flow Rate {m3/s}
  ,                                       !- Cooling Minimum Air Flow per Zone Floor Area {m3/s-m2}
  ,                                       !- Cooling Minimum Air Flow {m3/s}
  ,                                       !- Cooling Minimum Air Flow Fraction
  DesignDay,                              !- Heating Design Air Flow Method
  ,                                       !- Heating Design Air Flow Rate {m3/s}
  ,                                       !- Heating Maximum Air Flow per Zone Floor Area {m3/s-m2}
  ,                                       !- Heating Maximum Air Flow {m3/s}
  ,                                       !- Heating Maximum Air Flow Fraction
  No,                                     !- Account for Dedicated Outdoor Air System
  NeutralSupplyAir,                       !- Dedicated Outdoor Air System Control Strategy
  autosize,                               !- Dedicated Outdoor Air Low Setpoint Temperature for Design {C}
  autosize,                               !- Dedicated Outdoor Air High Setpoint Temperature for Design {C}
  Sensible Load Only No Latent Load,      !- Zone Load Sizing Method
  HumidityRatioDifference,                !- Zone Latent Cooling Design Supply Air Humidity Ratio Input Method
  ,                                       !- Zone Dehumidification Design Supply Air Humidity Ratio {kgWater/kgDryAir}
  0.005,                                  !- Zone Cooling Design Supply Air Humidity Ratio Difference {kgWater/kgDryAir}
  HumidityRatioDifference,                !- Zone Latent Heating Design Supply Air Humidity Ratio Input Method
  ,                                       !- Zone Humidification Design Supply Air Humidity Ratio {kgWater/kgDryAir}
  0.005,                                  !- Zone Humidification Design Supply Air Humidity Ratio Difference {kgWater/kgDryAir}
  ,                                       !- Zone Humidistat Dehumidification Set Point Schedule Name
  ,                                       !- Zone Humidistat Humidification Set Point Schedule Name
  ,                                       !- Design Zone Air Distribution Effectiveness in Cooling Mode
  ,                                       !- Design Zone Air Distribution Effectiveness in Heating Mode
  ,                                       !- Design Zone Secondary Recirculation Fraction {dimensionless}
  ,                                       !- Design Minimum Zone Ventilation Efficiency {dimensionless}
  Coincident;                             !- Sizing Option

OS:ZoneHVAC:EquipmentList,
  {378d0981-9079-4eac-a819-2937b05d36d8}, !- Handle
  Zone HVAC Equipment List 2,             !- Name
  {abf7b3ea-0bd5-4236-8ef3-4d5d5429d86f}; !- Thermal Zone

OS:AdditionalProperties,
  {2a85f5d3-e577-4e78-9613-0f8b2ff0b5a5}, !- Handle
  {abf7b3ea-0bd5-4236-8ef3-4d5d5429d86f}, !- Object Name
  ObjectType,                             !- Feature Name 1
  String,                                 !- Feature Data Type 1
  attic - vented;                         !- Feature Value 1

OS:Space,
  {d3d33d19-a4cc-48eb-8684-43efc9a77bc2}, !- Handle
  attic - vented 1,                       !- Name
  ,                                       !- Space Type Name
  ,                                       !- Default Construction Set Name
  ,                                       !- Default Schedule Set Name
  ,                                       !- Direction of Relative North {deg}
  ,                                       !- X Origin {m}
  ,                                       !- Y Origin {m}
  ,                                       !- Z Origin {m}
  ,                                       !- Building Story Name
  {abf7b3ea-0bd5-4236-8ef3-4d5d5429d86f}, !- Thermal Zone Name
  ,                                       !- Part of Total Floor Area
  ,                                       !- Design Specification Outdoor Air Object Name
  ,                                       !- Building Unit Name
  356.389957095237;                       !- Volume {m3}

OS:Material,
  {46f7aef0-35b2-411e-93a7-6b5542c0e4d3}, !- Handle
  asphalt or fiberglass shingles,         !- Name
  Rough,                                  !- Roughness
  0.00635,                                !- Thickness {m}
  0.162714,                               !- Conductivity {W/m-K}
  1121.4,                                 !- Density {kg/m3}
  1465.45,                                !- Specific Heat {J/kg-K}
  0.9,                                    !- Thermal Absorptance
  0.85,                                   !- Solar Absorptance