
OS:Version,
  {3c333948-6990-4808-be4d-8e5742c75b8c}, !- Handle
  3.9.0;                                  !- Version Identifier

OS:SimulationControl,
  {a317118f-322f-4d44-928b-5942175c8415}, !- Handle
  ,                                       !- Do Zone Sizing Calculation
  ,                                       !- Do System Sizing Calculation
  ,                                       !- Do Plant Sizing Calculation
  No;                                     !- Run Simulation for Sizing Periods

OS:Timestep,
  {fd4a7075-d570-4dc7-9623-8cbcc3815583}, !- Handle
  1;                                      !- Number of Timesteps per Hour

OS:ShadowCalculation,
  {9538443b-a57b-480a-81bb-3a8bdada2a8c}, !- Handle
  PolygonClipping,                        !- Shading Calculation Method
  ,                                       !- Shading Calculation Update Frequency Method
  20,                                     !- Shading Calculation Update Frequency
  200,                                    !- Maximum Figures in Shadow Overlap Calculations
  ,                                       !- Polygon Clipping Algorithm
  512,                                    !- Pixel Counting Resolution
  ,                                       !- Sky Diffuse Modeling Algorithm
  No,                                     !- Output External Shading Calculation Results
  No,                                     !- Disable Self-Shading Within Shading Zone Groups
  No;                                     !- Disable Self-Shading From Shading Zone Groups to Other Zones

OS:SurfaceConvectionAlgorithm:Outside,
  {ce4f0a61-680e-42ad-a80e-54bbdd556d97}, !- Handle
  DOE-2;                                  !- Algorithm

OS:SurfaceConvectionAlgorithm:Inside,
  {028d5e4b-1779-4595-8c25-2b6b4e6f5f2b}, !- Handle
  TARP;                                   !- Algorithm

OS:ZoneCapacitanceMultiplier:ResearchSpecial,
  {1887ebf3-9649-45b1-9e86-e45a2c0ea2c7}, !- Handle
  7,                                      !- Temperature Capacity Multiplier
  15,                                     !- Humidity Capacity Multiplier
  ;                                       !- Carbon Dioxide Capacity Multiplier

OS:ConvergenceLimits,
  {e76ccbc4-7140-4cfa-ac14-a3bd8979cdfb}, !- Handle
  0;                                      !- Minimum System Timestep {minutes}

OS:RunPeriod,
  {42ff22d4-44f9-46bd-b779-10c0444f6d02}, !- Handle
  Run Period 1,                           !- Name
  1,                                      !- Begin Month
  1,                                      !- Begin Day of Month
  12,                                     !- End Month
  31,                                     !- End Day of Month
  ,                                       !- Use Weather File Holidays and Special Days
  ,                                       !- Use Weather File Daylight Saving Period
  ,                                       !- Apply Weekend Holiday Rule
  ,                                       !- Use Weather File Rain Indicators
  ,                                       !- Use Weather File Snow Indicators
  ;                                       !- Number of Times Runperiod to be Repeated

OS:PerformancePrecisionTradeoffs,
  {8eff3708-4dbc-4e15-be7e-72704c2b4508}, !- Handle
  ,                                       !- Use Coil Direct Solutions
  CarrollMRT;                             !- Zone Radiant Exchange Algorithm

OS:WeatherFile,
  {97dfd50c-2dbf-4022-9e25-5c2c199afdb1}, !- Handle
  Buffalo Niagara Intl Ap,                !- City
  NY,                                     !- State Province Region
  USA,                                    !- Country
  TMY3,                                   !- Data Source
  725280,                                 !- WMO Number
  42.93,                                  !- Latitude {deg}
  -78.73,                                 !- Longitude {deg}
  -5,                                     !- Time Zone {hr}
  215,                                    !- Elevation {m}
  /Users/nmoore/github/urbanopt-example-geojson-project/example_project/weather/USA_NY_Buffalo-Greater.Buffalo.Intl.AP.725280_TMY3.epw, !- Url
  6B50E0FF,                               !- Checksum
  ,                                       !- Start Date Actual Year
  Sunday;                                 !- Start Day of Week

OS:YearDescription,
  {c1d4ac16-6b54-42c4-9cdb-c8427d64326b}, !- Handle
  2007,                                   !- Calendar Year
  ,                                       !- Day of Week for Start Day
  ;                                       !- Is Leap Year

OS:Site,
  {7ab1ddf8-4bf2-4739-be84-db36d507ef84}, !- Handle
  Buffalo Niagara Intl Ap_NY,             !- Name
  42.93,                                  !- Latitude {deg}
  -78.73,                                 !- Longitude {deg}
  -5,                                     !- Time Zone {hr}
  215,                                    !- Elevation {m}
  Suburbs,                                !- Terrain
  Yes;                                    !- Keep Site Location Information

OS:RunPeriodControl:DaylightSavingTime,
  {aead7868-a3a6-45b7-97b1-91202f7f7797}, !- Handle
  Mar 12,                                 !- Start Date
  Nov 5;                                  !- End Date

OS:Site:GroundTemperature:Shallow,
  {11bc0bb4-3787-495f-95bb-343761f9c29c}, !- Handle
  4.30207395723828,                       !- January Surface Ground Temperature {C}
  2.29327249652502,                       !- February Surface Ground Temperature {C}
  2.13240047156047,                       !- March Surface Ground Temperature {C}
  3.08567940719286,                       !- April Surface Ground Temperature {C}
  6.91256312497526,                       !- May Surface Ground Temperature {C}
  10.7216195949507,                       !- June Surface Ground Temperature {C}
  14.0238679822574,                       !- July Surface Ground Temperature {C}
  16.1157611184724,                       !- August Surface Ground Temperature {C}
  16.2934789303462,                       !- September Surface Ground Temperature {C}
  14.5920754632847,                       !- October Surface Ground Temperature {C}
  11.374036348653,                        !- November Surface Ground Temperature {C}
  7.68182621661674;                       !- December Surface Ground Temperature {C}

OS:Site:GroundTemperature:Deep,
  {60460533-8f4e-4767-a015-12e3ff2af2de}, !- Handle
  10,                                     !- January Deep Ground Temperature {C}
  10,                                     !- February Deep Ground Temperature {C}
  10,                                     !- March Deep Ground Temperature {C}
  10,                                     !- April Deep Ground Temperature {C}
  10,                                     !- May Deep Ground Temperature {C}
  10,                                     !- June Deep Ground Temperature {C}
  10,                                     !- July Deep Ground Temperature {C}
  10,                                     !- August Deep Ground Temperature {C}
  10,                                     !- September Deep Ground Temperature {C}
  10,                                     !- October Deep Ground Temperature {C}
  10,                                     !- November Deep Ground Temperature {C}
  10;                                     !- December Deep Ground Temperature {C}

OS:ThermalZone,
  {23c7669b-9785-443d-a70d-d54cb3efc0a6}, !- Handle
  conditioned space,                      !- Name
  1,                                      !- Multiplier
  ,                                       !- Ceiling Height {m}
  692.06373070848,                        !- Volume {m3}
  ,                                       !- Floor Area {m2}
  ,                                       !- Zone Inside Convection Algorithm
  ,                                       !- Zone Outside Convection Algorithm
  ,                                       !- Zone Conditioning Equipment List Name
  {a0fdc567-f954-48d7-a670-3ddb486ea27e}, !- Zone Air Inlet Port List
  {792fbc3e-5bb8-4f4e-a161-097e19752180}, !- Zone Air Exhaust Port List
  {657992bd-69b2-4597-9c25-97660123c843}, !- Zone Air Node Name
  {a18cf75d-0170-4e0f-bf8a-19655e870bdb}, !- Zone Return Air Port List
  ,                                       !- Primary Daylighting Control Name
  ,                                       !- Fraction of Zone Controlled by Primary Daylighting Control
  ,                                       !- Secondary Daylighting Control Name
  ,                                       !- Fraction of Zone Controlled by Secondary Daylighting Control
  ,                                       !- Illuminance Map Name
  ,                                       !- Group Rendering Name
  {5f6d8580-576e-4609-9d2e-c2daee7b1c8d}, !- Thermostat Name
  No;                                     !- Use Ideal Air Loads

OS:Node,
  {ac5e715a-a2d8-4bc9-b610-ea329727a993}, !- Handle
  Node 1,                                 !- Name
  {657992bd-69b2-4597-9c25-97660123c843}, !- Inlet Port
  ;                                       !- Outlet Port

OS:Connection,
  {657992bd-69b2-4597-9c25-97660123c843}, !- Handle
  {23c7669b-9785-443d-a70d-d54cb3efc0a6}, !- Source Object
  11,                                     !- Outlet Port
  {ac5e715a-a2d8-4bc9-b610-ea329727a993}, !- Target Object
  2;                                      !- Inlet Port

OS:PortList,
  {a0fdc567-f954-48d7-a670-3ddb486ea27e}, !- Handle
  {23c7669b-9785-443d-a70d-d54cb3efc0a6}, !- HVAC Component
  {73c650c0-7239-499b-bfcd-021a5a854c03}; !- Port 1

OS:PortList,
  {792fbc3e-5bb8-4f4e-a161-097e19752180}, !- Handle
  {23c7669b-9785-443d-a70d-d54cb3efc0a6}; !- HVAC Component

OS:PortList,
  {a18cf75d-0170-4e0f-bf8a-19655e870bdb}, !- Handle
  {23c7669b-9785-443d-a70d-d54cb3efc0a6}, !- HVAC Component
  {399c7807-956a-48af-b9a2-67af75fb6ad3}; !- Port 1

OS:Sizing:Zone,
  {f3a1e2ca-27fb-4f41-94b9-3cdaa5983a6f}, !- Handle
  {23c7669b-9785-443d-a70d-d54cb3efc0a6}, !- Zone or ZoneList Name
  SupplyAirTemperature,                   !- Zone Cooling Design Supply Air Temperature Input Method
  14,                                     !- Zone Cooling Design Supply Air Temperature {C}
  11.11,                                  !- Zone Cooling Design Supply Air Temperature Difference {deltaC}
  SupplyAirTemperature,                   !- Zone Heating Design Supply Air Temperature Input Method
  40,                                     !- Zone Heating Design Supply Air Temperature {C}
  11.11,                                  !- Zone Heating Design Supply Air Temperature Difference {deltaC}
  0.0085,                                 !- Zone Cooling Design Supply Air Humidity Ratio {kg-H2O/kg-air}
  0.008,                                  !- Zone Heating Design Supply Air Humidity Ratio {kg-H2O/kg-air}
  ,                                       !- Zone Heating Sizing Factor
  ,                                       !- Zone Cooling Sizing Factor
  DesignDay,                              !- Cooling Design Air Flow Method
  ,                                       !- Cooling Design Air Flow Rate {m3/s}
  ,                                       !- Cooling Minimum Air Flow per Zone Floor Area {m3/s-m2}
  ,                                       !- Cooling Minimum Air Flow {m3/s}
  ,                                       !- Cooling Minimum Air Flow Fraction
  DesignDay,                              !- Heating Design Air Flow Method
  ,                                       !- Heating Design Air Flow Rate {m3/s}
  ,                                       !- Heating Maximum Air Flow per Zone Floor Area {m3/s-m2}
  ,                                       !- Heating Maximum Air Flow {m3/s}
  ,                                       !- Heating Maximum Air Flow Fraction
  No,                                     !- Account for Dedicated Outdoor Air System
  NeutralSupplyAir,                       !- Dedicated Outdoor Air System Control Strategy
  autosize,                               !- Dedicated Outdoor Air Low Setpoint Temperature for Design {C}
  autosize,                               !- Dedicated Outdoor Air High Setpoint Temperature for Design {C}
  Sensible Load Only No Latent Load,      !- Zone Load Sizing Method
  HumidityRatioDifference,                !- Zone Latent Cooling Design Supply Air Humidity Ratio Input Method
  ,                                       !- Zone Dehumidification Design Supply Air Humidity Ratio {kgWater/kgDryAir}
  0.005,                                  !- Zone Cooling Design Supply Air Humidity Ratio Difference {kgWater/kgDryAir}
  HumidityRatioDifference,                !- Zone Latent Heating Design Supply Air Humidity Ratio Input Method
  ,                                       !- Zone Humidification Design Supply Air Humidity Ratio {kgWater/kgDryAir}
  0.005,                                  !- Zone Humidification Design Supply Air Humidity Ratio Difference {kgWater/kgDryAir}
  ,                                       !- Zone Humidistat Dehumidification Set Point Schedule Name
  ,                                       !- Zone Humidistat Humidification Set Point Schedule Name
  ,                                       !- Design Zone Air Distribution Effectiveness in Cooling Mode
  ,                                       !- Design Zone Air Distribution Effectiveness in Heating Mode
  ,                                       !- Design Zone Secondary Recirculation Fraction {dimensionless}
  ,                                       !- Design Minimum Zone Ventilation Efficiency {dimensionless}
  Coincident;                             !- Sizing Option

OS:ZoneHVAC:EquipmentList,
  {2fb601aa-9693-446b-93ff-0222bf0451ea}, !- Handle
  Zone HVAC Equipment List 1,             !- Name
  {23c7669b-9785-443d-a70d-d54cb3efc0a6}, !- Thermal Zone
  ,                                       !- Load Distribution Scheme
  {a4216fad-8dc7-4644-befd-715f9ebce4da}, !- Zone Equipment 1
  1,                                      !- Zone Equipment Cooling Sequence 1
  1,                                      !- Zone Equipment Heating or No-Load Sequence 1
  {43b11bff-cca8-46db-8862-9f44a1fc450f}, !- Zone Equipment Sequential Cooling Fraction Schedule Name 1
  {c1a6bf1d-f7ae-466d-8544-b4a9dc342787}; !- Zone Equipment Sequential Heating Fraction Schedule Name 1

OS:AdditionalProperties,
  {8f64553a-3783-4d76-9d23-9934e522fbcb}, !- Handle
  {23c7669b-9785-443d-a70d-d54cb3efc0a6}, !- Object Name
  ObjectType,                             !- Feature Name 1
  String,                                 !- Feature Data Type 1
  conditioned space;                      !- Feature Value 1

OS:Space,
  {4cf026fa-3c14-40f2-84f5-512d7bc8bcad}, !- Handle
  conditioned space 1,                    !- Name
  ,                                       !- Space Type Name
  ,                                       !- Default Construction Set Name
  ,                                       !- Default Schedule Set Name
  ,                                       !- Direction of Relative North {deg}
  ,                                       !- X Origin {m}
  ,                                       !- Y Origin {m}
  ,                                       !- Z Origin {m}
  ,                                       !- Building Story Name
  {23c7669b-9785-443d-a70d-d54cb3efc0a6}, !- Thermal Zone Name
  ,                                       !- Part of Total Floor Area
  ,                                       !- Design Specification Outdoor Air Object Name
  ,                                       !- Building Unit Name
  692.06373070848;                        !- Volume {m3}

OS:Schedule:Ruleset,
  {dc7ee959-ac31-44c3-9928-ea01561610d5}, !- Handle
  heating setpoint,                       !- Name
  {892e7c79-63a4-4b2a-bc21-e83f710792df}, !- Schedule Type Limits Name
  {5cd2e45d-3c08-4854-9d57-a5c888b0b65c}; !- Default Day Schedule Name

OS:Schedule:Day,
  {5cd2e45d-3c08-4854-9d57-a5c888b0b65c}, !- Handle
  heating setpoint default day,           !- Name
  {892e7c79-63a4-4b2a-bc21-e83f710792df}, !- Schedule Type Limits Name
  ,                                       !- Interpolate to Timestep
  24,                                     !- Hour 1
  0,                                      !- Minute 1
  0;                                      !- Value Until Time 1

OS:Schedule:Rule,
  {77a0b886-f314-4e7d-96fe-d42f76de375c}, !- Handle
  heating setpoint allday rule,           !- Name
  {dc7ee959-ac31-44c3-9928-ea01561610d5}, !- Schedule Ruleset Name
  0,                                      !- Rule Order
  {8c7fbc94-b9f7-4eba-9eb5-00d1726fe6f0}, !- Day Schedule Name
  Yes,                                    !- Apply Sunday
  Yes,                                    !- Apply Monday
  Yes,                                    !- Apply Tuesday
  Yes,                                    !- Apply Wednesday
  Yes,                                    !- Apply Thursday
  Yes,                                    !- Apply Friday
  Yes,                                    !- Apply Saturday
  DateRange,                              !- Date Specification Type
  1,                                      !- Start Month
  1,                                      !- Start Day
  12,                                     !- End Month
  31;                                     !- End Day

OS:Schedule:Day,
  {8c7fbc94-b9f7-4eba-9eb5-00d1726fe6f0}, !- Handle
  heating setpoint day,                   !- Name
  {892e7c79-63a4-4b2a-bc21-e83f710792df}, !- Schedule Type Limits Name
  ,                                       !- Interpolate to Timestep
  24,                                     !- Hour 1
  0,                                      !- Minute 1
  20;                                     !- Value Until Time 1

OS:Schedule:Ruleset,
  {497289e3-e631-4092-a2a7-04d12dc48f8b}, !- Handle
  cooling setpoint,                       !- Name
  {892e7c79-63a4-4b2a-bc21-e83f710792df}, !- Schedule Type Limits Name
  {73d8238b-85ce-42d9-ae26-4cbcab5e3d64}; !- Default Day Schedule Name

OS:Schedule:Day,
  {73d8238b-85ce-42d9-ae26-4cbcab5e3d64}, !- Handle
  cooling setpoint default day,           !- Name
  {892e7c79-63a4-4b2a-bc21-e83f710792df}, !- Schedule Type Limits Name
  ,                                       !- Interpolate to Timestep
  24,                                     !- Hour 1
  0,                                      !- Minute 1
  0;                                      !- Value Until Time 1

OS:Schedule:Rule,
  {26874651-ef81-4608-b203-ed906043ede4}, !- Handle
  cooling setpoint allday rule,           !- Name
  {497289e3-e631-4092-a2a7-04d12dc48f8b}, !- Schedule Ruleset Name
  0,                                      !- Rule Order
  {f808a879-e1d2-4224-afa2-a3ac9a5f7a06}, !- Day Schedule Name
  Yes,                                    !- Apply Sunday
  Yes,                                    !- Apply Monday
  Yes,                                    !- Apply Tuesday
  Yes,                                    !- Apply Wednesday
  Yes,                                    !- Apply Thursday
  Yes,                                    !- Apply Friday
  Yes,                                    !- Apply Saturday
  DateRange,                              !- Date Specification Type
  1,                                      !- Start Month
  1,                                      !- Start Day
  12,                                     !- End Month
  31;                                     !- End Day

OS:Schedule:Day,
  {f808a879-e1d2-4224-afa2-a3ac9a5f7a06}, !- Handle
  cooling setpoint day,                   !- Name
  {892e7c79-63a4-4b2a-bc21-e83f710792df}, !- Schedule Type Limits Name
  ,                                       !- Interpolate to Timestep
  24,                                     !- Hour 1
  0,                                      !- Minute 1
  25.5555555555556;                       !- Value Until Time 1

OS:ThermostatSetpoint:DualSetpoint,
  {5f6d8580-576e-4609-9d2e-c2daee7b1c8d}, !- Handle
  conditioned space temperature setpoint, !- Name
  {dc7ee959-ac31-44c3-9928-ea01561610d5}, !- Heating Setpoint Temperature Schedule Name
  {497289e3-e631-4092-a2a7-04d12dc48f8b}, !- Cooling Setpoint Temperature Schedule Name
  0;                                      !- Temperature Difference Between Cutout And Setpoint {deltaC}

OS:ScheduleTypeLimits,
  {892e7c79-63a4-4b2a-bc21-e83f710792df}, !- Handle
  Temperature,                            !- Name
  ,                                       !- Lower Limit Value
  ,                                       !- Upper Limit Value
  Continuous,                             !- Numeric Type
  Temperature;                            !- Unit Type

OS:Surface,
  {ccf36903-9d62-4cbe-9cab-a84870a44ae9}, !- Handle
  Roof1,                                  !- Name
  RoofCeiling,                            !- Surface Type
  {33c7a06d-9027-4746-bc49-baf661529bc3}, !- Construction Name
  {ef5bfb37-292e-4f19-b66c-4eabd89bc98d}, !- Space Name
  Outdoors,                               !- Outside Boundary Condition
  ,                                       !- Outside Boundary Condition Object
  SunExposed,                             !- Sun Exposure
  WindExposed,                            !- Wind Exposure
  ,                                       !- View Factor to Ground
  ,                                       !- Number of Vertices
  -26.9347048849634, 58.0557891618865, 2.4384, !- X,Y,Z Vertex 1 {m}
  -26.9347048849634, 46.7895631136661, 8.0715130241102, !- X,Y,Z Vertex 2 {m}
  -14.3386812381136, 46.7895631136661, 8.0715130241102, !- X,Y,Z Vertex 3 {m}
  -14.3386812381136, 58.0557891618865, 2.4384; !- X,Y,Z Vertex 4 {m}

OS:AdditionalProperties,
  {b3bda6a7-e5de-4de1-b0d4-c32313ed38d1}, !- Handle
  {ccf36903-9d62-4cbe-9cab-a84870a44ae9}, !- Object Name
  Length,                                 !- Feature Name 1
  Double,                                 !- Feature Data Type 1
  41.325536899113608,                     !- Feature Value 1
  Width,                                  !- Feature Name 2
  Double,                                 !- Feature Data Type 2
  41.325536899113601,                     !- Feature Value 2
  Azimuth,                                !- Feature Name 3
  Integer,                                !- Feature Data Type 3
  0,                                      !- Feature Value 3
  Tilt,                                   !- Feature Name 4
  Double,                                 !- Feature Data Type 4
  0.5,                                    !- Feature Value 4
  SurfaceType,                            !- Feature Name 5
  String,                                 !- Feature Data Type 5
  Roof;                                   !- Feature Value 5

OS:ThermalZone,
  {b3c118aa-63c2-4c6d-bae2-db608d42eb46}, !- Handle
  attic - vented,                         !- Name
  1,                                      !- Multiplier
  ,                                       !- Ceiling Height {m}
  356.389957095237,                       !- Volume {m3}
  ,                                       !- Floor Area {m2}
  ,                                       !- Zone Inside Convection Algorithm
  ,                                       !- Zone Outside Convection Algorithm
  ,                                       !- Zone Conditioning Equipment List Name
  {a538a03a-069f-47f7-85c7-6c289f354821}, !- Zone Air Inlet Port List
  {8a27a9c6-f62b-42ea-9fd0-04be7c8de529}, !- Zone Air Exhaust Port List
  {933d82e9-1b3a-4b1b-9216-b2bad64dc5eb}, !- Zone Air Node Name
  {a48ad4fe-8379-4f5c-b42b-784f933872a1}, !- Zone Return Air Port List
  ,                                       !- Primary Daylighting Control Name
  ,                                       !- Fraction of Zone Controlled by Primary Daylighting Control
  ,                                       !- Secondary Daylighting Control Name
  ,                                       !- Fraction of Zone Controlled by Secondary Daylighting Control
  ,                                       !- Illuminance Map Name
  ,                                       !- Group Rendering Name
  ,                                       !- Thermostat Name
  No;                                     !- Use Ideal Air Loads

OS:Node,
  {2eac94b7-d369-492c-aa38-ba2d4459a09f}, !- Handle
  Node 2,                                 !- Name
  {933d82e9-1b3a-4b1b-9216-b2bad64dc5eb}, !- Inlet Port
  ;                                       !- Outlet Port

OS:Connection,
  {933d82e9-1b3a-4b1b-9216-b2bad64dc5eb}, !- Handle
  {b3c118aa-63c2-4c6d-bae2-db608d42eb46}, !- Source Object
  11,                                     !- Outlet Port
  {2eac94b7-d369-492c-aa38-ba2d4459a09f}, !- Target Object
  2;                                      !- Inlet Port

OS:PortList,
  {a538a03a-069f-47f7-85c7-6c289f354821}, !- Handle
  {b3c118aa-63c2-4c6d-bae2-db608d42eb46}; !- HVAC Component

OS:PortList,
  {8a27a9c6-f62b-42ea-9fd0-04be7c8de529}, !- Handle
  {b3c118aa-63c2-4c6d-bae2-db608d42eb46}; !- HVAC Component

OS:PortList,
  {a48ad4fe-8379-4f5c-b42b-784f933872a1}, !- Handle
  {b3c118aa-63c2-4c6d-bae2-db608d42eb46}; !- HVAC Component

OS:Sizing:Zone,
  {97ab2a48-5902-4ac3-beee-641fa1cffe77}, !- Handle
  {b3c118aa-63c2-4c6d-bae2-db608d42eb46}, !- Zone or ZoneList Name
  SupplyAirTemperature,                   !- Zone Cooling Design Supply Air Temperature Input Method
  14,                                     !- Zone Cooling Design Supply Air Temperature {C}
  11.11,                                  !- Zone Cooling Design Supply Air Temperature Difference {deltaC}
  SupplyAirTemperature,                   !- Zone Heating Design Supply Air Temperature Input Method
  40,                                     !- Zone Heating Design Supply Air Temperature {C}
  11.11,                                  !- Zone Heating Design Supply Air Temperature Difference {deltaC}
  0.0085,                                 !- Zone Cooling Design Supply Air Humidity Ratio {kg-H2O/kg-air}
  0.008,                                  !- Zone Heating Design Supply Air Humidity Ratio {kg-H2O/kg-air}
  ,                                       !- Zone Heating Sizing Factor
  ,                                       !- Zone Cooling Sizing Factor
  DesignDay,                              !- Cooling Design Air Flow Method
  ,                                       !- Cooling Design Air Flow Rate {m3/s}
  ,                                       !- Cooling Minimum Air Flow per Zone Floor Area {m3/s-m2}
  ,                                       !- Cooling Minimum Air Flow {m3/s}
  ,                                       !- Cooling Minimum Air Flow Fraction
  DesignDay,                              !- Heating Design Air Flow Method
  ,                                       !- Heating Design Air Flow Rate {m3/s}
  ,                                       !- Heating Maximum Air Flow per Zone Floor Area {m3/s-m2}
  ,                                       !- Heating Maximum Air Flow {m3/s}
  ,                                       !- Heating Maximum Air Flow Fraction
  No,                                     !- Account for Dedicated Outdoor Air System
  NeutralSupplyAir,                       !- Dedicated Outdoor Air System Control Strategy
  autosize,                               !- Dedicated Outdoor Air Low Setpoint Temperature for Design {C}
  autosize,                               !- Dedicated Outdoor Air High Setpoint Temperature for Design {C}
  Sensible Load Only No Latent Load,      !- Zone Load Sizing Method
  HumidityRatioDifference,                !- Zone Latent Cooling Design Supply Air Humidity Ratio Input Method
  ,                                       !- Zone Dehumidification Design Supply Air Humidity Ratio {kgWater/kgDryAir}
  0.005,                                  !- Zone Cooling Design Supply Air Humidity Ratio Difference {kgWater/kgDryAir}
  HumidityRatioDifference,                !- Zone Latent Heating Design Supply Air Humidity Ratio Input Method
  ,                                       !- Zone Humidification Design Supply Air Humidity Ratio {kgWater/kgDryAir}
  0.005,                                  !- Zone Humidification Design Supply Air Humidity Ratio Difference {kgWater/kgDryAir}
  ,                                       !- Zone Humidistat Dehumidification Set Point Schedule Name
  ,                                       !- Zone Humidistat Humidification Set Point Schedule Name
  ,                                       !- Design Zone Air Distribution Effectiveness in Cooling Mode
  ,                                       !- Design Zone Air Distribution Effectiveness in Heating Mode
  ,                                       !- Design Zone Secondary Recirculation Fraction {dimensionless}
  ,                                       !- Design Minimum Zone Ventilation Efficiency {dimensionless}
  Coincident;                             !- Sizing Option

OS:ZoneHVAC:EquipmentList,
  {06605892-12c8-4767-8b48-3fe3d5b4fa17}, !- Handle
  Zone HVAC Equipment List 2,             !- Name
  {b3c118aa-63c2-4c6d-bae2-db608d42eb46}; !- Thermal Zone

OS:AdditionalProperties,
  {28e94aba-8045-43ef-a549-539a875c8920}, !- Handle
  {b3c118aa-63c2-4c6d-bae2-db608d42eb46}, !- Object Name
  ObjectType,                             !- Feature Name 1
  String,                                 !- Feature Data Type 1
  attic - vented;                         !- Feature Value 1

OS:Space,
  {ef5bfb37-292e-4f19-b66c-4eabd89bc98d}, !- Handle
  attic - vented 1,                       !- Name
  ,                                       !- Space Type Name
  ,                                       !- Default Construction Set Name
  ,                                       !- Default Schedule Set Name
  ,                                       !- Direction of Relative North {deg}
  ,                                       !- X Origin {m}
  ,                                       !- Y Origin {m}