
OS:Version,
  {7dc74145-bb02-41e2-a247-ba3049748324}, !- Handle
  3.10.0;                                 !- Version Identifier

OS:SimulationControl,
  {d8887fd7-90e7-4e45-9cb7-f50b6c734197}, !- Handle
  ,                                       !- Do Zone Sizing Calculation
  ,                                       !- Do System Sizing Calculation
  ,                                       !- Do Plant Sizing Calculation
  No;                                     !- Run Simulation for Sizing Periods

OS:Timestep,
  {15706456-71a6-4bb5-b4da-769f0bcb7942}, !- Handle
  1;                                      !- Number of Timesteps per Hour

OS:ShadowCalculation,
  {3875eefa-490f-4fe1-a34f-2a1a64589918}, !- Handle
  PolygonClipping,                        !- Shading Calculation Method
  ,                                       !- Shading Calculation Update Frequency Method
  20,                                     !- Shading Calculation Update Frequency
  200,                                    !- Maximum Figures in Shadow Overlap Calculations
  ,                                       !- Polygon Clipping Algorithm
  512,                                    !- Pixel Counting Resolution
  ,                                       !- Sky Diffuse Modeling Algorithm
  No,                                     !- Output External Shading Calculation Results
  No,                                     !- Disable Self-Shading Within Shading Zone Groups
  No;                                     !- Disable Self-Shading From Shading Zone Groups to Other Zones

OS:SurfaceConvectionAlgorithm:Outside,
  {e69c65c5-6741-4c54-a49c-243213f5630f}, !- Handle
  DOE-2;                                  !- Algorithm

OS:SurfaceConvectionAlgorithm:Inside,
  {73319105-0be6-4fd3-8aa3-d3e1f4c9ca31}, !- Handle
  TARP;                                   !- Algorithm

OS:ZoneCapacitanceMultiplier:ResearchSpecial,
  {3d67563e-83c4-428f-961b-f7b260acc573}, !- Handle
  7,                                      !- Temperature Capacity Multiplier
  15,                                     !- Humidity Capacity Multiplier
  ;                                       !- Carbon Dioxide Capacity Multiplier

OS:ConvergenceLimits,
  {e4fc46c3-127d-4013-967a-1c68e31aaded}, !- Handle
  0;                                      !- Minimum System Timestep {minutes}

OS:RunPeriod,
  {1bc61a2a-df5d-4924-943c-f2b25f842bf1}, !- Handle
  Run Period 1,                           !- Name
  1,                                      !- Begin Month
  1,                                      !- Begin Day of Month
  12,                                     !- End Month
  31,                                     !- End Day of Month
  ,                                       !- Use Weather File Holidays and Special Days
  ,                                       !- Use Weather File Daylight Saving Period
  ,                                       !- Apply Weekend Holiday Rule
  ,                                       !- Use Weather File Rain Indicators
  ,                                       !- Use Weather File Snow Indicators
  ;                                       !- Number of Times Runperiod to be Repeated

OS:PerformancePrecisionTradeoffs,
  {d38c40da-844d-46c1-b5f1-5456fa14a134}, !- Handle
  ,                                       !- Use Coil Direct Solutions
  CarrollMRT;                             !- Zone Radiant Exchange Algorithm

OS:WeatherFile,
  {0115c69e-b66e-4de1-be2d-83094efa9b37}, !- Handle
  Buffalo Niagara Intl Ap,                !- City
  NY,                                     !- State Province Region
  USA,                                    !- Country
  TMY3,                                   !- Data Source
  725280,                                 !- WMO Number
  42.93,                                  !- Latitude {deg}
  -78.73,                                 !- Longitude {deg}
  -5,                                     !- Time Zone {hr}
  215,                                    !- Elevation {m}
  /Users/nmoore/github/urbanopt-example-geojson-project/example_project/weather/USA_NY_Buffalo-Greater.Buffalo.Intl.AP.725280_TMY3.epw, !- Url
  6B50E0FF,                               !- Checksum
  ,                                       !- Start Date Actual Year
  Sunday;                                 !- Start Day of Week

OS:YearDescription,
  {1db166bf-536d-418d-9e2b-13bffb07ac77}, !- Handle
  2007,                                   !- Calendar Year
  ,                                       !- Day of Week for Start Day
  ;                                       !- Is Leap Year

OS:Site,
  {be9a4b55-0885-4c92-a413-6d7bad1a6954}, !- Handle
  Buffalo Niagara Intl Ap_NY,             !- Name
  42.93,                                  !- Latitude {deg}
  -78.73,                                 !- Longitude {deg}
  -5,                                     !- Time Zone {hr}
  215,                                    !- Elevation {m}
  Suburbs,                                !- Terrain
  Yes;                                    !- Keep Site Location Information

OS:RunPeriodControl:DaylightSavingTime,
  {0816f042-8abe-4866-a013-adf1fb9ed4b2}, !- Handle
  Mar 12,                                 !- Start Date
  Nov 5;                                  !- End Date

OS:Site:GroundTemperature:Shallow,
  {9b68823e-67b4-4f28-9e8f-bc95ee3e1cd3}, !- Handle
  4.30207395723828,                       !- January Surface Ground Temperature {C}
  2.29327249652502,                       !- February Surface Ground Temperature {C}
  2.13240047156047,                       !- March Surface Ground Temperature {C}
  3.08567940719286,                       !- April Surface Ground Temperature {C}
  6.91256312497526,                       !- May Surface Ground Temperature {C}
  10.7216195949507,                       !- June Surface Ground Temperature {C}
  14.0238679822574,                       !- July Surface Ground Temperature {C}
  16.1157611184724,                       !- August Surface Ground Temperature {C}
  16.2934789303462,                       !- September Surface Ground Temperature {C}
  14.5920754632847,                       !- October Surface Ground Temperature {C}
  11.374036348653,                        !- November Surface Ground Temperature {C}
  7.68182621661674;                       !- December Surface Ground Temperature {C}

OS:Site:GroundTemperature:Deep,
  {407823ba-e1f4-45d6-80d2-e771383cc117}, !- Handle
  10,                                     !- January Deep Ground Temperature {C}
  10,                                     !- February Deep Ground Temperature {C}
  10,                                     !- March Deep Ground Temperature {C}
  10,                                     !- April Deep Ground Temperature {C}
  10,                                     !- May Deep Ground Temperature {C}
  10,                                     !- June Deep Ground Temperature {C}
  10,                                     !- July Deep Ground Temperature {C}
  10,                                     !- August Deep Ground Temperature {C}
  10,                                     !- September Deep Ground Temperature {C}
  10,                                     !- October Deep Ground Temperature {C}
  10,                                     !- November Deep Ground Temperature {C}
  10;                                     !- December Deep Ground Temperature {C}

OS:ThermalZone,
  {e0e64342-7d43-4780-87e5-a31ea34a5cc7}, !- Handle
  conditioned space,                      !- Name
  1,                                      !- Multiplier
  ,                                       !- Ceiling Height {m}
  692.06373070848,                        !- Volume {m3}
  ,                                       !- Floor Area {m2}
  ,                                       !- Zone Inside Convection Algorithm
  ,                                       !- Zone Outside Convection Algorithm
  ,                                       !- Zone Conditioning Equipment List Name
  {a97114b8-ac67-4987-8934-7b7f61bb5f9d}, !- Zone Air Inlet Port List
  {b3063d85-7cb6-4bd4-8a74-d7cec11a4ab0}, !- Zone Air Exhaust Port List
  {d8dbac52-95a4-4c5c-9f76-a2ae0627a319}, !- Zone Air Node Name
  {099e87f9-2d24-4a05-aee5-9717aad768e1}, !- Zone Return Air Port List
  ,                                       !- Primary Daylighting Control Name
  ,                                       !- Fraction of Zone Controlled by Primary Daylighting Control
  ,                                       !- Secondary Daylighting Control Name
  ,                                       !- Fraction of Zone Controlled by Secondary Daylighting Control
  ,                                       !- Illuminance Map Name
  ,                                       !- Group Rendering Name
  {1df9bd4e-fb4c-4acf-9c79-7c271699868c}, !- Thermostat Name
  No;                                     !- Use Ideal Air Loads

OS:Node,
  {167ccd07-d975-4767-b29a-d3603057601f}, !- Handle
  Node 1,                                 !- Name
  {d8dbac52-95a4-4c5c-9f76-a2ae0627a319}, !- Inlet Port
  ;                                       !- Outlet Port

OS:Connection,
  {d8dbac52-95a4-4c5c-9f76-a2ae0627a319}, !- Handle
  {e0e64342-7d43-4780-87e5-a31ea34a5cc7}, !- Source Object
  11,                                     !- Outlet Port
  {167ccd07-d975-4767-b29a-d3603057601f}, !- Target Object
  2;                                      !- Inlet Port

OS:PortList,
  {a97114b8-ac67-4987-8934-7b7f61bb5f9d}, !- Handle
  {e0e64342-7d43-4780-87e5-a31ea34a5cc7}, !- HVAC Component
  {174bff50-2eac-4f6b-9c08-c7a1ceef7f1c}; !- Port 1

OS:PortList,
  {b3063d85-7cb6-4bd4-8a74-d7cec11a4ab0}, !- Handle
  {e0e64342-7d43-4780-87e5-a31ea34a5cc7}; !- HVAC Component

OS:PortList,
  {099e87f9-2d24-4a05-aee5-9717aad768e1}, !- Handle
  {e0e64342-7d43-4780-87e5-a31ea34a5cc7}, !- HVAC Component
  {74717b11-e74f-4342-9948-0d75d303f8c4}; !- Port 1

OS:Sizing:Zone,
  {b29f9830-695f-45c4-b49c-4984164233d4}, !- Handle
  {e0e64342-7d43-4780-87e5-a31ea34a5cc7}, !- Zone or ZoneList Name
  SupplyAirTemperature,                   !- Zone Cooling Design Supply Air Temperature Input Method
  14,                                     !- Zone Cooling Design Supply Air Temperature {C}
  11.11,                                  !- Zone Cooling Design Supply Air Temperature Difference {deltaC}
  SupplyAirTemperature,                   !- Zone Heating Design Supply Air Temperature Input Method
  40,                                     !- Zone Heating Design Supply Air Temperature {C}
  11.11,                                  !- Zone Heating Design Supply Air Temperature Difference {deltaC}
  0.0085,                                 !- Zone Cooling Design Supply Air Humidity Ratio {kg-H2O/kg-air}
  0.008,                                  !- Zone Heating Design Supply Air Humidity Ratio {kg-H2O/kg-air}
  ,                                       !- Zone Heating Sizing Factor
  ,                                       !- Zone Cooling Sizing Factor
  DesignDay,                              !- Cooling Design Air Flow Method
  ,                                       !- Cooling Design Air Flow Rate {m3/s}
  ,                                       !- Cooling Minimum Air Flow per Zone Floor Area {m3/s-m2}
  ,                                       !- Cooling Minimum Air Flow {m3/s}
  ,                                       !- Cooling Minimum Air Flow Fraction
  DesignDay,                              !- Heating Design Air Flow Method
  ,                                       !- Heating Design Air Flow Rate {m3/s}
  ,                                       !- Heating Maximum Air Flow per Zone Floor Area {m3/s-m2}
  ,                                       !- Heating Maximum Air Flow {m3/s}
  ,                                       !- Heating Maximum Air Flow Fraction
  No,                                     !- Account for Dedicated Outdoor Air System
  NeutralSupplyAir,                       !- Dedicated Outdoor Air System Control Strategy
  autosize,                               !- Dedicated Outdoor Air Low Setpoint Temperature for Design {C}
  autosize,                               !- Dedicated Outdoor Air High Setpoint Temperature for Design {C}
  Sensible Load Only No Latent Load,      !- Zone Load Sizing Method
  HumidityRatioDifference,                !- Zone Latent Cooling Design Supply Air Humidity Ratio Input Method
  ,                                       !- Zone Dehumidification Design Supply Air Humidity Ratio {kgWater/kgDryAir}
  0.005,                                  !- Zone Cooling Design Supply Air Humidity Ratio Difference {kgWater/kgDryAir}
  HumidityRatioDifference,                !- Zone Latent Heating Design Supply Air Humidity Ratio Input Method
  ,                                       !- Zone Humidification Design Supply Air Humidity Ratio {kgWater/kgDryAir}
  0.005,                                  !- Zone Humidification Design Supply Air Humidity Ratio Difference {kgWater/kgDryAir}
  ,                                       !- Zone Humidistat Dehumidification Set Point Schedule Name
  ,                                       !- Zone Humidistat Humidification Set Point Schedule Name
  ,                                       !- Design Zone Air Distribution Effectiveness in Cooling Mode
  ,                                       !- Design Zone Air Distribution Effectiveness in Heating Mode
  ,                                       !- Design Zone Secondary Recirculation Fraction {dimensionless}
  ,                                       !- Design Minimum Zone Ventilation Efficiency {dimensionless}
  Coincident;                             !- Sizing Option

OS:ZoneHVAC:EquipmentList,
  {f6fe1c68-77d1-452f-a3b4-2a05e8caf844}, !- Handle
  Zone HVAC Equipment List 1,             !- Name
  {e0e64342-7d43-4780-87e5-a31ea34a5cc7}, !- Thermal Zone
  ,                                       !- Load Distribution Scheme
  {5cdb89cb-e18b-4cf7-a536-b58131d574df}, !- Zone Equipment 1
  1,                                      !- Zone Equipment Cooling Sequence 1
  1,                                      !- Zone Equipment Heating or No-Load Sequence 1
  {3bcccee3-2970-449f-b9e8-02388f46927b}, !- Zone Equipment Sequential Cooling Fraction Schedule Name 1
  {5c603902-1524-4eee-86a4-42d407f5fb47}; !- Zone Equipment Sequential Heating Fraction Schedule Name 1

OS:AdditionalProperties,
  {257eef72-dbd0-44a7-ad8a-e63611120f16}, !- Handle
  {e0e64342-7d43-4780-87e5-a31ea34a5cc7}, !- Object Name
  ObjectType,                             !- Feature Name 1
  String,                                 !- Feature Data Type 1
  conditioned space;                      !- Feature Value 1

OS:Space,
  {6fc51cd0-02b4-4edb-ae82-65ab5d015204}, !- Handle
  conditioned space 1,                    !- Name
  ,                                       !- Space Type Name
  ,                                       !- Default Construction Set Name
  ,                                       !- Default Schedule Set Name
  ,                                       !- Direction of Relative North {deg}
  ,                                       !- X Origin {m}
  ,                                       !- Y Origin {m}
  ,                                       !- Z Origin {m}
  ,                                       !- Building Story Name
  {e0e64342-7d43-4780-87e5-a31ea34a5cc7}, !- Thermal Zone Name
  ,                                       !- Part of Total Floor Area
  ,                                       !- Design Specification Outdoor Air Object Name
  ,                                       !- Building Unit Name
  692.06373070848;                        !- Volume {m3}

OS:Schedule:Ruleset,
  {952993e7-d61b-48b4-940c-d6ecd652efa6}, !- Handle
  heating setpoint,                       !- Name
  {afdae60a-4017-4934-8913-fa0e85251a76}, !- Schedule Type Limits Name
  {d501caa7-c689-41a6-bfb9-ea2e24db442e}; !- Default Day Schedule Name

OS:Schedule:Day,
  {d501caa7-c689-41a6-bfb9-ea2e24db442e}, !- Handle
  heating setpoint default day,           !- Name
  {afdae60a-4017-4934-8913-fa0e85251a76}, !- Schedule Type Limits Name
  ,                                       !- Interpolate to Timestep
  24,                                     !- Hour 1
  0,                                      !- Minute 1
  0;                                      !- Value Until Time 1

OS:Schedule:Rule,
  {43701813-bc81-4f42-8db3-08494b72cb81}, !- Handle
  heating setpoint allday rule,           !- Name
  {952993e7-d61b-48b4-940c-d6ecd652efa6}, !- Schedule Ruleset Name
  0,                                      !- Rule Order
  {2237f115-abff-43e2-913c-356e526b1292}, !- Day Schedule Name
  Yes,                                    !- Apply Sunday
  Yes,                                    !- Apply Monday
  Yes,                                    !- Apply Tuesday
  Yes,                                    !- Apply Wednesday
  Yes,                                    !- Apply Thursday
  Yes,                                    !- Apply Friday
  Yes,                                    !- Apply Saturday
  DateRange,                              !- Date Specification Type
  1,                                      !- Start Month
  1,                                      !- Start Day
  12,                                     !- End Month
  31;                                     !- End Day

OS:Schedule:Day,
  {2237f115-abff-43e2-913c-356e526b1292}, !- Handle
  heating setpoint day,                   !- Name
  {afdae60a-4017-4934-8913-fa0e85251a76}, !- Schedule Type Limits Name
  ,                                       !- Interpolate to Timestep
  24,                                     !- Hour 1
  0,                                      !- Minute 1
  20;                                     !- Value Until Time 1

OS:Schedule:Ruleset,
  {0aea4a7c-b8a8-40ef-a3d2-764231e41a71}, !- Handle
  cooling setpoint,                       !- Name
  {afdae60a-4017-4934-8913-fa0e85251a76}, !- Schedule Type Limits Name
  {a16734a2-bc6b-4818-8479-690731d7dcc1}; !- Default Day Schedule Name

OS:Schedule:Day,
  {a16734a2-bc6b-4818-8479-690731d7dcc1}, !- Handle
  cooling setpoint default day,           !- Name
  {afdae60a-4017-4934-8913-fa0e85251a76}, !- Schedule Type Limits Name
  ,                                       !- Interpolate to Timestep
  24,                                     !- Hour 1
  0,                                      !- Minute 1
  0;                                      !- Value Until Time 1

OS:Schedule:Rule,
  {ac25e3ed-2b6c-4684-88fb-b6b77f88118b}, !- Handle
  cooling setpoint allday rule,           !- Name
  {0aea4a7c-b8a8-40ef-a3d2-764231e41a71}, !- Schedule Ruleset Name
  0,                                      !- Rule Order
  {e4e93b93-5729-404e-8daf-d07a09ba3c4d}, !- Day Schedule Name
  Yes,                                    !- Apply Sunday
  Yes,                                    !- Apply Monday
  Yes,                                    !- Apply Tuesday
  Yes,                                    !- Apply Wednesday
  Yes,                                    !- Apply Thursday
  Yes,                                    !- Apply Friday
  Yes,                                    !- Apply Saturday
  DateRange,                              !- Date Specification Type
  1,                                      !- Start Month
  1,                                      !- Start Day
  12,                                     !- End Month
  31;                                     !- End Day

OS:Schedule:Day,
  {e4e93b93-5729-404e-8daf-d07a09ba3c4d}, !- Handle
  cooling setpoint day,                   !- Name
  {afdae60a-4017-4934-8913-fa0e85251a76}, !- Schedule Type Limits Name
  ,                                       !- Interpolate to Timestep
  24,                                     !- Hour 1
  0,                                      !- Minute 1
  25.5555555555556;                       !- Value Until Time 1

OS:ThermostatSetpoint:DualSetpoint,
  {1df9bd4e-fb4c-4acf-9c79-7c271699868c}, !- Handle
  conditioned space temperature setpoint, !- Name
  {952993e7-d61b-48b4-940c-d6ecd652efa6}, !- Heating Setpoint Temperature Schedule Name
  {0aea4a7c-b8a8-40ef-a3d2-764231e41a71}, !- Cooling Setpoint Temperature Schedule Name
  0;                                      !- Temperature Difference Between Cutout And Setpoint {deltaC}

OS:ScheduleTypeLimits,
  {afdae60a-4017-4934-8913-fa0e85251a76}, !- Handle
  Temperature,                            !- Name
  ,                                       !- Lower Limit Value
  ,                                       !- Upper Limit Value
  Continuous,                             !- Numeric Type
  Temperature;                            !- Unit Type

OS:Surface,
  {08f2fa92-a359-4feb-af2c-89f76e3bab43}, !- Handle
  Roof1,                                  !- Name
  RoofCeiling,                            !- Surface Type
  {1266a151-edfa-4b24-8f96-3dc2fdc7f510}, !- Construction Name
  {db714da4-abeb-47f2-b6e7-ed7897b1d5c7}, !- Space Name
  Outdoors,                               !- Outside Boundary Condition
  ,                                       !- Outside Boundary Condition Object
  SunExposed,                             !- Sun Exposure
  WindExposed,                            !- Wind Exposure
  ,                                       !- View Factor to Ground
  ,                                       !- Number of Vertices
  -26.9347048849634, 58.0557891618865, 2.4384, !- X,Y,Z Vertex 1 {m}
  -26.9347048849634, 46.7895631136661, 8.0715130241102, !- X,Y,Z Vertex 2 {m}
  -14.3386812381136, 46.7895631136661, 8.0715130241102, !- X,Y,Z Vertex 3 {m}
  -14.3386812381136, 58.0557891618865, 2.4384; !- X,Y,Z Vertex 4 {m}

OS:AdditionalProperties,
  {fa539393-90ee-4cde-a79d-cc7924fa49b4}, !- Handle
  {08f2fa92-a359-4feb-af2c-89f76e3bab43}, !- Object Name
  Length,                                 !- Feature Name 1
  Double,                                 !- Feature Data Type 1
  41.325536899113608,                     !- Feature Value 1
  Width,                                  !- Feature Name 2
  Double,                                 !- Feature Data Type 2
  41.325536899113601,                     !- Feature Value 2
  Azimuth,                                !- Feature Name 3
  Integer,                                !- Feature Data Type 3
  0,                                      !- Feature Value 3
  Tilt,                                   !- Feature Name 4
  Double,                                 !- Feature Data Type 4
  0.5,                                    !- Feature Value 4
  SurfaceType,                            !- Feature Name 5
  String,                                 !- Feature Data Type 5
  Roof;                                   !- Feature Value 5

OS:ThermalZone,
  {5b4d8229-5187-4199-8f50-595390fd9e3b}, !- Handle
  attic - vented,                         !- Name
  1,                                      !- Multiplier
  ,                                       !- Ceiling Height {m}
  356.390921899745,                       !- Volume {m3}
  ,                                       !- Floor Area {m2}
  ,                                       !- Zone Inside Convection Algorithm
  ,                                       !- Zone Outside Convection Algorithm
  ,                                       !- Zone Conditioning Equipment List Name
  {8b5c8afd-e27f-4183-83b5-c5d764fb528e}, !- Zone Air Inlet Port List
  {bb50c9b5-b8f9-4cc5-925f-86bf42dae3a3}, !- Zone Air Exhaust Port List
  {01f49903-c074-46c7-b288-f83a720a02db}, !- Zone Air Node Name
  {41f6fe00-5ed2-470b-91bd-d553c901d9ea}, !- Zone Return Air Port List
  ,                                       !- Primary Daylighting Control Name
  ,                                       !- Fraction of Zone Controlled by Primary Daylighting Control
  ,                                       !- Secondary Daylighting Control Name
  ,                                       !- Fraction of Zone Controlled by Secondary Daylighting Control
  ,                                       !- Illuminance Map Name
  ,                                       !- Group Rendering Name
  ,                                       !- Thermostat Name
  No;                                     !- Use Ideal Air Loads

OS:Node,
  {9f1db9af-28f1-4c3f-8288-4be1d471fd6a}, !- Handle
  Node 2,                                 !- Name
  {01f49903-c074-46c7-b288-f83a720a02db}, !- Inlet Port
  ;                                       !- Outlet Port

OS:Connection,
  {01f49903-c074-46c7-b288-f83a720a02db}, !- Handle
  {5b4d8229-5187-4199-8f50-595390fd9e3b}, !- Source Object
  11,                                     !- Outlet Port
  {9f1db9af-28f1-4c3f-8288-4be1d471fd6a}, !- Target Object
  2;                                      !- Inlet Port

OS:PortList,
  {8b5c8afd-e27f-4183-83b5-c5d764fb528e}, !- Handle
  {5b4d8229-5187-4199-8f50-595390fd9e3b}; !- HVAC Component

OS:PortList,
  {bb50c9b5-b8f9-4cc5-925f-86bf42dae3a3}, !- Handle
  {5b4d8229-5187-4199-8f50-595390fd9e3b}; !- HVAC Component

OS:PortList,
  {41f6fe00-5ed2-470b-91bd-d553c901d9ea}, !- Handle
  {5b4d8229-5187-4199-8f50-595390fd9e3b}; !- HVAC Component

OS:Sizing:Zone,
  {ff90b1e6-26d1-46fd-849d-929b4207373b}, !- Handle
  {5b4d8229-5187-4199-8f50-595390fd9e3b}, !- Zone or ZoneList Name
  SupplyAirTemperature,                   !- Zone Cooling Design Supply Air Temperature Input Method
  14,                                     !- Zone Cooling Design Supply Air Temperature {C}
  11.11,                                  !- Zone Cooling Design Supply Air Temperature Difference {deltaC}
  SupplyAirTemperature,                   !- Zone Heating Design Supply Air Temperature Input Method
  40,                                     !- Zone Heating Design Supply Air Temperature {C}
  11.11,                                  !- Zone Heating Design Supply Air Temperature Difference {deltaC}
  0.0085,                                 !- Zone Cooling Design Supply Air Humidity Ratio {kg-H2O/kg-air}
  0.008,                                  !- Zone Heating Design Supply Air Humidity Ratio {kg-H2O/kg-air}
  ,                                       !- Zone Heating Sizing Factor
  ,                                       !- Zone Cooling Sizing Factor
  DesignDay,                              !- Cooling Design Air Flow Method
  ,                                       !- Cooling Design Air Flow Rate {m3/s}
  ,                                       !- Cooling Minimum Air Flow per Zone Floor Area {m3/s-m2}
  ,                                       !- Cooling Minimum Air Flow {m3/s}
  ,                                       !- Cooling Minimum Air Flow Fraction
  DesignDay,                              !- Heating Design Air Flow Method
  ,                                       !- Heating Design Air Flow Rate {m3/s}
  ,                                       !- Heating Maximum Air Flow per Zone Floor Area {m3/s-m2}
  ,                                       !- Heating Maximum Air Flow {m3/s}
  ,                                       !- Heating Maximum Air Flow Fraction
  No,                                     !- Account for Dedicated Outdoor Air System
  NeutralSupplyAir,                       !- Dedicated Outdoor Air System Control Strategy
  autosize,                               !- Dedicated Outdoor Air Low Setpoint Temperature for Design {C}
  autosize,                               !- Dedicated Outdoor Air High Setpoint Temperature for Design {C}
  Sensible Load Only No Latent Load,      !- Zone Load Sizing Method
  HumidityRatioDifference,                !- Zone Latent Cooling Design Supply Air Humidity Ratio Input Method
  ,                                       !- Zone Dehumidification Design Supply Air Humidity Ratio {kgWater/kgDryAir}
  0.005,                                  !- Zone Cooling Design Supply Air Humidity Ratio Difference {kgWater/kgDryAir}
  HumidityRatioDifference,                !- Zone Latent Heating Design Supply Air Humidity Ratio Input Method
  ,                                       !- Zone Humidification Design Supply Air Humidity Ratio {kgWater/kgDryAir}
  0.005,                                  !- Zone Humidification Design Supply Air Humidity Ratio Difference {kgWater/kgDryAir}
  ,                                       !- Zone Humidistat Dehumidification Set Point Schedule Name
  ,                                       !- Zone Humidistat Humidification Set Point Schedule Name
  ,                                       !- Design Zone Air Distribution Effectiveness in Cooling Mode
  ,                                       !- Design Zone Air Distribution Effectiveness in Heating Mode
  ,                                       !- Design Zone Secondary Recirculation Fraction {dimensionless}
  ,                                       !- Design Minimum Zone Ventilation Efficiency {dimensionless}
  Coincident;                             !- Sizing Option

OS:ZoneHVAC:EquipmentList,
  {a1303b1b-2722-4390-b95f-80d48d68a611}, !- Handle
  Zone HVAC Equipment List 2,             !- Name
  {5b4d8229-5187-4199-8f50-595390fd9e3b}; !- Thermal Zone

OS:AdditionalProperties,
  {aa755d45-ab96-4719-aec7-4884564874ad}, !- Handle
  {5b4d8229-5187-4199-8f50-595390fd9e3b}, !- Object Name
  ObjectType,                             !- Feature Name 1
  String,                                 !- Feature Data Type 1
  attic - vented;                         !- Feature Value 1

OS:Space,
  {db714da4-abeb-47f2-b6e7-ed7897b1d5c7}, !- Handle
  attic - vented 1,                       !- Name
  ,                                       !- Space Type Name
  ,                                       !- Default Construction Set Name
  ,                                       !- Default Schedule Set Name
  ,                                       !- Direction of Relative North {deg}
  ,                                       !- X Origin {m}
  ,                                       !- Y Origin {m}