
OS:Version,
  {0af716d1-6357-461e-909a-3d11d7b912e9}, !- Handle
  3.9.0;                                  !- Version Identifier

OS:SimulationControl,
  {a60e71d9-bcb2-4915-ba92-d2dff226ed6d}, !- Handle
  ,                                       !- Do Zone Sizing Calculation
  ,                                       !- Do System Sizing Calculation
  ,                                       !- Do Plant Sizing Calculation
  No;                                     !- Run Simulation for Sizing Periods

OS:Timestep,
  {9d8bd9c5-2aa9-4b27-b6dc-874118cc9ab2}, !- Handle
  1;                                      !- Number of Timesteps per Hour

OS:ShadowCalculation,
  {fa59ec56-af57-4b00-b2d1-8b47955b3822}, !- Handle
  PolygonClipping,                        !- Shading Calculation Method
  ,                                       !- Shading Calculation Update Frequency Method
  20,                                     !- Shading Calculation Update Frequency
  200,                                    !- Maximum Figures in Shadow Overlap Calculations
  ,                                       !- Polygon Clipping Algorithm
  512,                                    !- Pixel Counting Resolution
  ,                                       !- Sky Diffuse Modeling Algorithm
  No,                                     !- Output External Shading Calculation Results
  No,                                     !- Disable Self-Shading Within Shading Zone Groups
  No;                                     !- Disable Self-Shading From Shading Zone Groups to Other Zones

OS:SurfaceConvectionAlgorithm:Outside,
  {d767ac04-9b28-4de3-81ef-fedd66aedfbb}, !- Handle
  DOE-2;                                  !- Algorithm

OS:SurfaceConvectionAlgorithm:Inside,
  {89ed4ca4-9d98-4637-b46b-edc69d170114}, !- Handle
  TARP;                                   !- Algorithm

OS:ZoneCapacitanceMultiplier:ResearchSpecial,
  {1ecb17c2-0eca-4aa9-8b29-5c7d8f9cacf0}, !- Handle
  7,                                      !- Temperature Capacity Multiplier
  15,                                     !- Humidity Capacity Multiplier
  ;                                       !- Carbon Dioxide Capacity Multiplier

OS:ConvergenceLimits,
  {494dcb0b-5338-4f10-a7a0-e33f5ef4cbb8}, !- Handle
  0;                                      !- Minimum System Timestep {minutes}

OS:RunPeriod,
  {5267785e-68fd-4988-921c-9af7b6a6ea32}, !- Handle
  Run Period 1,                           !- Name
  1,                                      !- Begin Month
  1,                                      !- Begin Day of Month
  12,                                     !- End Month
  31,                                     !- End Day of Month
  ,                                       !- Use Weather File Holidays and Special Days
  ,                                       !- Use Weather File Daylight Saving Period
  ,                                       !- Apply Weekend Holiday Rule
  ,                                       !- Use Weather File Rain Indicators
  ,                                       !- Use Weather File Snow Indicators
  ;                                       !- Number of Times Runperiod to be Repeated

OS:PerformancePrecisionTradeoffs,
  {612b6dd5-1ee7-49b3-89fd-2208a85614a7}, !- Handle
  ,                                       !- Use Coil Direct Solutions
  CarrollMRT;                             !- Zone Radiant Exchange Algorithm

OS:WeatherFile,
  {db1eb305-a18e-423f-87cb-dc90b8fe423c}, !- Handle
  Buffalo Niagara Intl Ap,                !- City
  NY,                                     !- State Province Region
  USA,                                    !- Country
  TMY3,                                   !- Data Source
  725280,                                 !- WMO Number
  42.93,                                  !- Latitude {deg}
  -78.73,                                 !- Longitude {deg}
  -5,                                     !- Time Zone {hr}
  215,                                    !- Elevation {m}
  /Users/nmoore/github/urbanopt-example-geojson-project/example_project/weather/USA_NY_Buffalo-Greater.Buffalo.Intl.AP.725280_TMY3.epw, !- Url
  6B50E0FF,                               !- Checksum
  ,                                       !- Start Date Actual Year
  Sunday;                                 !- Start Day of Week

OS:YearDescription,
  {d1316055-5978-419d-b35d-5d152aa3c328}, !- Handle
  2007,                                   !- Calendar Year
  ,                                       !- Day of Week for Start Day
  ;                                       !- Is Leap Year

OS:Site,
  {2012aded-3016-449e-af5f-46bbcd466230}, !- Handle
  Buffalo Niagara Intl Ap_NY,             !- Name
  42.93,                                  !- Latitude {deg}
  -78.73,                                 !- Longitude {deg}
  -5,                                     !- Time Zone {hr}
  215,                                    !- Elevation {m}
  Suburbs,                                !- Terrain
  Yes;                                    !- Keep Site Location Information

OS:RunPeriodControl:DaylightSavingTime,
  {a69c2e68-9b9f-4325-86dc-4f0b25505cd6}, !- Handle
  Mar 12,                                 !- Start Date
  Nov 5;                                  !- End Date

OS:Site:GroundTemperature:Shallow,
  {95a0e320-ee40-4600-a31c-669064add34e}, !- Handle
  4.30207395723828,                       !- January Surface Ground Temperature {C}
  2.29327249652502,                       !- February Surface Ground Temperature {C}
  2.13240047156047,                       !- March Surface Ground Temperature {C}
  3.08567940719286,                       !- April Surface Ground Temperature {C}
  6.91256312497526,                       !- May Surface Ground Temperature {C}
  10.7216195949507,                       !- June Surface Ground Temperature {C}
  14.0238679822574,                       !- July Surface Ground Temperature {C}
  16.1157611184724,                       !- August Surface Ground Temperature {C}
  16.2934789303462,                       !- September Surface Ground Temperature {C}
  14.5920754632847,                       !- October Surface Ground Temperature {C}
  11.374036348653,                        !- November Surface Ground Temperature {C}
  7.68182621661674;                       !- December Surface Ground Temperature {C}

OS:ThermalZone,
  {e1730ecf-6323-42f4-9bdc-9eccbb885bad}, !- Handle
  conditioned space,                      !- Name
  1,                                      !- Multiplier
  ,                                       !- Ceiling Height {m}
  692.06373070848,                        !- Volume {m3}
  ,                                       !- Floor Area {m2}
  ,                                       !- Zone Inside Convection Algorithm
  ,                                       !- Zone Outside Convection Algorithm
  ,                                       !- Zone Conditioning Equipment List Name
  {5813dfe8-afe2-40af-ad6b-0e2b9632cd6e}, !- Zone Air Inlet Port List
  {3d617aa2-6df5-485f-93bc-5b221bd8d45f}, !- Zone Air Exhaust Port List
  {133b1197-3dbe-47ee-910e-ef92e7c86899}, !- Zone Air Node Name
  {fd57b27e-d7da-43fb-bae8-1498b6359ed1}, !- Zone Return Air Port List
  ,                                       !- Primary Daylighting Control Name
  ,                                       !- Fraction of Zone Controlled by Primary Daylighting Control
  ,                                       !- Secondary Daylighting Control Name
  ,                                       !- Fraction of Zone Controlled by Secondary Daylighting Control
  ,                                       !- Illuminance Map Name
  ,                                       !- Group Rendering Name
  {d7cd647e-9b21-4be6-ae7b-85e156b6a58a}, !- Thermostat Name
  No;                                     !- Use Ideal Air Loads

OS:Node,
  {9721ffd8-e6df-416c-b094-8d8cab937dec}, !- Handle
  Node 1,                                 !- Name
  {133b1197-3dbe-47ee-910e-ef92e7c86899}, !- Inlet Port
  ;                                       !- Outlet Port

OS:Connection,
  {133b1197-3dbe-47ee-910e-ef92e7c86899}, !- Handle
  {e1730ecf-6323-42f4-9bdc-9eccbb885bad}, !- Source Object
  11,                                     !- Outlet Port
  {9721ffd8-e6df-416c-b094-8d8cab937dec}, !- Target Object
  2;                                      !- Inlet Port

OS:PortList,
  {5813dfe8-afe2-40af-ad6b-0e2b9632cd6e}, !- Handle
  {e1730ecf-6323-42f4-9bdc-9eccbb885bad}, !- HVAC Component
  {6824752f-a048-4e3e-a9d3-6b34336fdc6f}; !- Port 1

OS:PortList,
  {3d617aa2-6df5-485f-93bc-5b221bd8d45f}, !- Handle
  {e1730ecf-6323-42f4-9bdc-9eccbb885bad}; !- HVAC Component

OS:PortList,
  {fd57b27e-d7da-43fb-bae8-1498b6359ed1}, !- Handle
  {e1730ecf-6323-42f4-9bdc-9eccbb885bad}, !- HVAC Component
  {194a5634-3c65-47ed-87c8-fd17d9075e56}; !- Port 1

OS:Sizing:Zone,
  {16338c60-2e32-4809-876a-8e5ec11bc86e}, !- Handle
  {e1730ecf-6323-42f4-9bdc-9eccbb885bad}, !- Zone or ZoneList Name
  SupplyAirTemperature,                   !- Zone Cooling Design Supply Air Temperature Input Method
  14,                                     !- Zone Cooling Design Supply Air Temperature {C}
  11.11,                                  !- Zone Cooling Design Supply Air Temperature Difference {deltaC}
  SupplyAirTemperature,                   !- Zone Heating Design Supply Air Temperature Input Method
  40,                                     !- Zone Heating Design Supply Air Temperature {C}
  11.11,                                  !- Zone Heating Design Supply Air Temperature Difference {deltaC}
  0.0085,                                 !- Zone Cooling Design Supply Air Humidity Ratio {kg-H2O/kg-air}
  0.008,                                  !- Zone Heating Design Supply Air Humidity Ratio {kg-H2O/kg-air}
  ,                                       !- Zone Heating Sizing Factor
  ,                                       !- Zone Cooling Sizing Factor
  DesignDay,                              !- Cooling Design Air Flow Method
  ,                                       !- Cooling Design Air Flow Rate {m3/s}
  ,                                       !- Cooling Minimum Air Flow per Zone Floor Area {m3/s-m2}
  ,                                       !- Cooling Minimum Air Flow {m3/s}
  ,                                       !- Cooling Minimum Air Flow Fraction
  DesignDay,                              !- Heating Design Air Flow Method
  ,                                       !- Heating Design Air Flow Rate {m3/s}
  ,                                       !- Heating Maximum Air Flow per Zone Floor Area {m3/s-m2}
  ,                                       !- Heating Maximum Air Flow {m3/s}
  ,                                       !- Heating Maximum Air Flow Fraction
  No,                                     !- Account for Dedicated Outdoor Air System
  NeutralSupplyAir,                       !- Dedicated Outdoor Air System Control Strategy
  autosize,                               !- Dedicated Outdoor Air Low Setpoint Temperature for Design {C}
  autosize,                               !- Dedicated Outdoor Air High Setpoint Temperature for Design {C}
  Sensible Load Only No Latent Load,      !- Zone Load Sizing Method
  HumidityRatioDifference,                !- Zone Latent Cooling Design Supply Air Humidity Ratio Input Method
  ,                                       !- Zone Dehumidification Design Supply Air Humidity Ratio {kgWater/kgDryAir}
  0.005,                                  !- Zone Cooling Design Supply Air Humidity Ratio Difference {kgWater/kgDryAir}
  HumidityRatioDifference,                !- Zone Latent Heating Design Supply Air Humidity Ratio Input Method
  ,                                       !- Zone Humidification Design Supply Air Humidity Ratio {kgWater/kgDryAir}
  0.005,                                  !- Zone Humidification Design Supply Air Humidity Ratio Difference {kgWater/kgDryAir}
  ,                                       !- Zone Humidistat Dehumidification Set Point Schedule Name
  ,                                       !- Zone Humidistat Humidification Set Point Schedule Name
  ,                                       !- Design Zone Air Distribution Effectiveness in Cooling Mode
  ,                                       !- Design Zone Air Distribution Effectiveness in Heating Mode
  ,                                       !- Design Zone Secondary Recirculation Fraction {dimensionless}
  ,                                       !- Design Minimum Zone Ventilation Efficiency {dimensionless}
  Coincident;                             !- Sizing Option

OS:ZoneHVAC:EquipmentList,
  {f408f592-291c-447e-a7dc-eedbbcb63640}, !- Handle
  Zone HVAC Equipment List 1,             !- Name
  {e1730ecf-6323-42f4-9bdc-9eccbb885bad}, !- Thermal Zone
  ,                                       !- Load Distribution Scheme
  {0b22a94e-6046-4947-acc6-2a9eef7fe6d6}, !- Zone Equipment 1
  1,                                      !- Zone Equipment Cooling Sequence 1
  1,                                      !- Zone Equipment Heating or No-Load Sequence 1
  {4871f4fc-4c0b-4b6c-b80b-fa81f6466d21}, !- Zone Equipment Sequential Cooling Fraction Schedule Name 1
  {58de02bc-9333-4157-a7e5-9a66adb90dd6}, !- Zone Equipment Sequential Heating Fraction Schedule Name 1
  {01bb81c5-12fb-4cfb-a5de-56085c7ed316}, !- Zone Equipment 2
  2,                                      !- Zone Equipment Cooling Sequence 2
  2,                                      !- Zone Equipment Heating or No-Load Sequence 2
  {674d14c8-6046-48cd-b3a4-31432898622d}, !- Zone Equipment Sequential Cooling Fraction Schedule Name 2
  {41a1390c-cfec-4bcb-acc4-dac946a061d6}; !- Zone Equipment Sequential Heating Fraction Schedule Name 2

OS:AdditionalProperties,
  {74d44141-fb8d-4fce-9947-4c526171d797}, !- Handle
  {e1730ecf-6323-42f4-9bdc-9eccbb885bad}, !- Object Name
  ObjectType,                             !- Feature Name 1
  String,                                 !- Feature Data Type 1
  conditioned space;                      !- Feature Value 1

OS:Space,
  {97f5e2b0-c9d0-4045-846a-5630225a6081}, !- Handle
  conditioned space 1,                    !- Name
  ,                                       !- Space Type Name
  ,                                       !- Default Construction Set Name
  ,                                       !- Default Schedule Set Name
  ,                                       !- Direction of Relative North {deg}
  ,                                       !- X Origin {m}
  ,                                       !- Y Origin {m}
  ,                                       !- Z Origin {m}
  ,                                       !- Building Story Name
  {e1730ecf-6323-42f4-9bdc-9eccbb885bad}, !- Thermal Zone Name
  ,                                       !- Part of Total Floor Area
  ,                                       !- Design Specification Outdoor Air Object Name
  ,                                       !- Building Unit Name
  692.06373070848;                        !- Volume {m3}

OS:Schedule:Ruleset,
  {ba8fc593-1e52-4de2-927a-458c0e20d689}, !- Handle
  heating setpoint,                       !- Name
  {a7c52923-ed1b-4987-b37d-a28bd1dd7735}, !- Schedule Type Limits Name
  {83007cd7-af16-4083-850e-214d2fda2e7a}; !- Default Day Schedule Name

OS:Schedule:Day,
  {83007cd7-af16-4083-850e-214d2fda2e7a}, !- Handle
  heating setpoint default day,           !- Name
  {a7c52923-ed1b-4987-b37d-a28bd1dd7735}, !- Schedule Type Limits Name
  ,                                       !- Interpolate to Timestep
  24,                                     !- Hour 1
  0,                                      !- Minute 1
  0;                                      !- Value Until Time 1

OS:Schedule:Rule,
  {ede1804b-991f-491d-b2ee-bcdb8567df9e}, !- Handle
  heating setpoint allday rule,           !- Name
  {ba8fc593-1e52-4de2-927a-458c0e20d689}, !- Schedule Ruleset Name
  0,                                      !- Rule Order
  {4d58e2cc-4f71-492d-b0cf-9033bf807b7f}, !- Day Schedule Name
  Yes,                                    !- Apply Sunday
  Yes,                                    !- Apply Monday
  Yes,                                    !- Apply Tuesday
  Yes,                                    !- Apply Wednesday
  Yes,                                    !- Apply Thursday
  Yes,                                    !- Apply Friday
  Yes,                                    !- Apply Saturday
  DateRange,                              !- Date Specification Type
  1,                                      !- Start Month
  1,                                      !- Start Day
  12,                                     !- End Month
  31;                                     !- End Day

OS:Schedule:Day,
  {4d58e2cc-4f71-492d-b0cf-9033bf807b7f}, !- Handle
  heating setpoint day,                   !- Name
  {a7c52923-ed1b-4987-b37d-a28bd1dd7735}, !- Schedule Type Limits Name
  ,                                       !- Interpolate to Timestep
  24,                                     !- Hour 1
  0,                                      !- Minute 1
  20;                                     !- Value Until Time 1

OS:Schedule:Ruleset,
  {8f17d865-c3e7-40ca-9c30-dc3ff4244bb4}, !- Handle
  cooling setpoint,                       !- Name
  {a7c52923-ed1b-4987-b37d-a28bd1dd7735}, !- Schedule Type Limits Name
  {588c5b9d-7202-4556-b9b0-c6b17ebf967e}; !- Default Day Schedule Name

OS:Schedule:Day,
  {588c5b9d-7202-4556-b9b0-c6b17ebf967e}, !- Handle
  cooling setpoint default day,           !- Name
  {a7c52923-ed1b-4987-b37d-a28bd1dd7735}, !- Schedule Type Limits Name
  ,                                       !- Interpolate to Timestep
  24,                                     !- Hour 1
  0,                                      !- Minute 1
  0;                                      !- Value Until Time 1

OS:Schedule:Rule,
  {30870c7b-0678-425a-b5a4-0a32602e5a00}, !- Handle
  cooling setpoint allday rule,           !- Name
  {8f17d865-c3e7-40ca-9c30-dc3ff4244bb4}, !- Schedule Ruleset Name
  0,                                      !- Rule Order
  {1a9a4a89-02d7-4e3e-81b5-7a2d2e4951bf}, !- Day Schedule Name
  Yes,                                    !- Apply Sunday
  Yes,                                    !- Apply Monday
  Yes,                                    !- Apply Tuesday
  Yes,                                    !- Apply Wednesday
  Yes,                                    !- Apply Thursday
  Yes,                                    !- Apply Friday
  Yes,                                    !- Apply Saturday
  DateRange,                              !- Date Specification Type
  1,                                      !- Start Month
  1,                                      !- Start Day
  12,                                     !- End Month
  31;                                     !- End Day

OS:Schedule:Day,
  {1a9a4a89-02d7-4e3e-81b5-7a2d2e4951bf}, !- Handle
  cooling setpoint day,                   !- Name
  {a7c52923-ed1b-4987-b37d-a28bd1dd7735}, !- Schedule Type Limits Name
  ,                                       !- Interpolate to Timestep
  24,                                     !- Hour 1
  0,                                      !- Minute 1
  25.5555555555556;                       !- Value Until Time 1

OS:ThermostatSetpoint:DualSetpoint,
  {d7cd647e-9b21-4be6-ae7b-85e156b6a58a}, !- Handle
  conditioned space temperature setpoint, !- Name
  {ba8fc593-1e52-4de2-927a-458c0e20d689}, !- Heating Setpoint Temperature Schedule Name
  {8f17d865-c3e7-40ca-9c30-dc3ff4244bb4}, !- Cooling Setpoint Temperature Schedule Name
  0;                                      !- Temperature Difference Between Cutout And Setpoint {deltaC}

OS:ScheduleTypeLimits,
  {a7c52923-ed1b-4987-b37d-a28bd1dd7735}, !- Handle
  Temperature,                            !- Name
  ,                                       !- Lower Limit Value
  ,                                       !- Upper Limit Value
  Continuous,                             !- Numeric Type
  Temperature;                            !- Unit Type

OS:Surface,
  {03104e54-c46b-4472-8ced-4df0b7e5996e}, !- Handle
  Roof1,                                  !- Name
  RoofCeiling,                            !- Surface Type
  {39b76ac4-d2c6-4e51-87fd-35ec14ccf940}, !- Construction Name
  {9b496a99-9637-4bec-b556-f28fb039696a}, !- Space Name
  Outdoors,                               !- Outside Boundary Condition
  ,                                       !- Outside Boundary Condition Object
  SunExposed,                             !- Sun Exposure
  WindExposed,                            !- Wind Exposure
  ,                                       !- View Factor to Ground
  ,                                       !- Number of Vertices
  -26.9347048849634, 58.0557891618865, 2.4384, !- X,Y,Z Vertex 1 {m}
  -26.9347048849634, 46.7895631136661, 8.0715130241102, !- X,Y,Z Vertex 2 {m}
  -14.3386812381136, 46.7895631136661, 8.0715130241102, !- X,Y,Z Vertex 3 {m}
  -14.3386812381136, 58.0557891618865, 2.4384; !- X,Y,Z Vertex 4 {m}

OS:AdditionalProperties,
  {d29fe83b-6131-4918-8b2b-cdeb95f53aca}, !- Handle
  {03104e54-c46b-4472-8ced-4df0b7e5996e}, !- Object Name
  Length,                                 !- Feature Name 1
  Double,                                 !- Feature Data Type 1
  41.325536899113608,                     !- Feature Value 1
  Width,                                  !- Feature Name 2
  Double,                                 !- Feature Data Type 2
  41.325536899113601,                     !- Feature Value 2
  Azimuth,                                !- Feature Name 3
  Integer,                                !- Feature Data Type 3
  0,                                      !- Feature Value 3
  Tilt,                                   !- Feature Name 4
  Double,                                 !- Feature Data Type 4
  0.5,                                    !- Feature Value 4
  SurfaceType,                            !- Feature Name 5
  String,                                 !- Feature Data Type 5
  Roof;                                   !- Feature Value 5

OS:ThermalZone,
  {c677f259-af53-44d4-bbc8-b0d00f6cee9a}, !- Handle
  attic - vented,                         !- Name
  1,                                      !- Multiplier
  ,                                       !- Ceiling Height {m}
  356.389957095237,                       !- Volume {m3}
  ,                                       !- Floor Area {m2}
  ,                                       !- Zone Inside Convection Algorithm
  ,                                       !- Zone Outside Convection Algorithm
  ,                                       !- Zone Conditioning Equipment List Name
  {35b33562-6a18-442a-950f-f4761b3290ee}, !- Zone Air Inlet Port List
  {bd2f9d3e-9532-47e0-b8d0-8ef543d8008b}, !- Zone Air Exhaust Port List
  {771a84e5-ac18-4bfe-b7e8-a408ca94062d}, !- Zone Air Node Name
  {389a232c-bc5e-423f-a0f5-a31895c96339}, !- Zone Return Air Port List
  ,                                       !- Primary Daylighting Control Name
  ,                                       !- Fraction of Zone Controlled by Primary Daylighting Control
  ,                                       !- Secondary Daylighting Control Name
  ,                                       !- Fraction of Zone Controlled by Secondary Daylighting Control
  ,                                       !- Illuminance Map Name
  ,                                       !- Group Rendering Name
  ,                                       !- Thermostat Name
  No;                                     !- Use Ideal Air Loads

OS:Node,
  {476d0b8b-0251-444c-9bfb-cc0eae639c53}, !- Handle
  Node 2,                                 !- Name
  {771a84e5-ac18-4bfe-b7e8-a408ca94062d}, !- Inlet Port
  ;                                       !- Outlet Port

OS:Connection,
  {771a84e5-ac18-4bfe-b7e8-a408ca94062d}, !- Handle
  {c677f259-af53-44d4-bbc8-b0d00f6cee9a}, !- Source Object
  11,                                     !- Outlet Port
  {476d0b8b-0251-444c-9bfb-cc0eae639c53}, !- Target Object
  2;                                      !- Inlet Port

OS:PortList,
  {35b33562-6a18-442a-950f-f4761b3290ee}, !- Handle
  {c677f259-af53-44d4-bbc8-b0d00f6cee9a}; !- HVAC Component

OS:PortList,
  {bd2f9d3e-9532-47e0-b8d0-8ef543d8008b}, !- Handle
  {c677f259-af53-44d4-bbc8-b0d00f6cee9a}; !- HVAC Component

OS:PortList,
  {389a232c-bc5e-423f-a0f5-a31895c96339}, !- Handle
  {c677f259-af53-44d4-bbc8-b0d00f6cee9a}; !- HVAC Component

OS:Sizing:Zone,
  {30973511-5e19-4d38-9106-73e075e83313}, !- Handle
  {c677f259-af53-44d4-bbc8-b0d00f6cee9a}, !- Zone or ZoneList Name
  SupplyAirTemperature,                   !- Zone Cooling Design Supply Air Temperature Input Method
  14,                                     !- Zone Cooling Design Supply Air Temperature {C}
  11.11,                                  !- Zone Cooling Design Supply Air Temperature Difference {deltaC}
  SupplyAirTemperature,                   !- Zone Heating Design Supply Air Temperature Input Method
  40,                                     !- Zone Heating Design Supply Air Temperature {C}
  11.11,                                  !- Zone Heating Design Supply Air Temperature Difference {deltaC}
  0.0085,                                 !- Zone Cooling Design Supply Air Humidity Ratio {kg-H2O/kg-air}
  0.008,                                  !- Zone Heating Design Supply Air Humidity Ratio {kg-H2O/kg-air}
  ,                                       !- Zone Heating Sizing Factor
  ,                                       !- Zone Cooling Sizing Factor
  DesignDay,                              !- Cooling Design Air Flow Method
  ,                                       !- Cooling Design Air Flow Rate {m3/s}
  ,                                       !- Cooling Minimum Air Flow per Zone Floor Area {m3/s-m2}
  ,                                       !- Cooling Minimum Air Flow {m3/s}
  ,                                       !- Cooling Minimum Air Flow Fraction
  DesignDay,                              !- Heating Design Air Flow Method
  ,                                       !- Heating Design Air Flow Rate {m3/s}
  ,                                       !- Heating Maximum Air Flow per Zone Floor Area {m3/s-m2}
  ,                                       !- Heating Maximum Air Flow {m3/s}
  ,                                       !- Heating Maximum Air Flow Fraction
  No,                                     !- Account for Dedicated Outdoor Air System
  NeutralSupplyAir,                       !- Dedicated Outdoor Air System Control Strategy
  autosize,                               !- Dedicated Outdoor Air Low Setpoint Temperature for Design {C}
  autosize,                               !- Dedicated Outdoor Air High Setpoint Temperature for Design {C}
  Sensible Load Only No Latent Load,      !- Zone Load Sizing Method
  HumidityRatioDifference,                !- Zone Latent Cooling Design Supply Air Humidity Ratio Input Method
  ,                                       !- Zone Dehumidification Design Supply Air Humidity Ratio {kgWater/kgDryAir}
  0.005,                                  !- Zone Cooling Design Supply Air Humidity Ratio Difference {kgWater/kgDryAir}
  HumidityRatioDifference,                !- Zone Latent Heating Design Supply Air Humidity Ratio Input Method
  ,                                       !- Zone Humidification Design Supply Air Humidity Ratio {kgWater/kgDryAir}
  0.005,                                  !- Zone Humidification Design Supply Air Humidity Ratio Difference {kgWater/kgDryAir}
  ,                                       !- Zone Humidistat Dehumidification Set Point Schedule Name
  ,                                       !- Zone Humidistat Humidification Set Point Schedule Name
  ,                                       !- Design Zone Air Distribution Effectiveness in Cooling Mode
  ,                                       !- Design Zone Air Distribution Effectiveness in Heating Mode
  ,                                       !- Design Zone Secondary Recirculation Fraction {dimensionless}
  ,                                       !- Design Minimum Zone Ventilation Efficiency {dimensionless}
  Coincident;                             !- Sizing Option

OS:ZoneHVAC:EquipmentList,
  {64f832bc-94b0-4545-bf98-8ecb1f5e7612}, !- Handle
  Zone HVAC Equipment List 2,             !- Name
  {c677f259-af53-44d4-bbc8-b0d00f6cee9a}; !- Thermal Zone

OS:AdditionalProperties,
  {9ceaa160-10f3-44e6-8d12-79709b678eb7}, !- Handle
  {c677f259-af53-44d4-bbc8-b0d00f6cee9a}, !- Object Name
  ObjectType,                             !- Feature Name 1
  String,                                 !- Feature Data Type 1
  attic - vented;                         !- Feature Value 1

OS:Space,
  {9b496a99-9637-4bec-b556-f28fb039696a}, !- Handle
  attic - vented 1,                       !- Name
  ,                                       !- Space Type Name
  ,                                       !- Default Construction Set Name
  ,                                       !- Default Schedule Set Name
  ,                                       !- Direction of Relative North {deg}
  ,                                       !- X Origin {m}
  ,                                       !- Y Origin {m}
  ,                                       !- Z Origin {m}
  ,                                       !- Building Story Name
  {c677f259-af53-44d4-bbc8-b0d00f6cee9a}, !- Thermal Zone Name
  ,                                       !- Part of Total Floor Area
  ,                                       !- Design Specification Outdoor Air Object Name
  ,                                       !- Building Unit Name
  356.389957095237;                       !- Volume {m3}

OS:Material,
  {7758e11b-f5f1-4c25-8cc4-3cf027578040}, !- Handle
  asphalt or fiberglass shingles,         !- Name