
OS:Version,
  {44f8afcd-38c3-40d9-ba02-7f31bb829cfa}, !- Handle
  3.10.0;                                 !- Version Identifier

OS:SimulationControl,
  {b55c056a-71d6-40b7-a35b-1c435d576151}, !- Handle
  ,                                       !- Do Zone Sizing Calculation
  ,                                       !- Do System Sizing Calculation
  ,                                       !- Do Plant Sizing Calculation
  No;                                     !- Run Simulation for Sizing Periods

OS:Timestep,
  {bd9dc8cb-c6d8-49ef-9adf-2fbda61db9fb}, !- Handle
  1;                                      !- Number of Timesteps per Hour

OS:ShadowCalculation,
  {21c31c0d-32f5-4ade-b036-7c762d806450}, !- Handle
  PolygonClipping,                        !- Shading Calculation Method
  ,                                       !- Shading Calculation Update Frequency Method
  20,                                     !- Shading Calculation Update Frequency
  200,                                    !- Maximum Figures in Shadow Overlap Calculations
  ,                                       !- Polygon Clipping Algorithm
  512,                                    !- Pixel Counting Resolution
  ,                                       !- Sky Diffuse Modeling Algorithm
  No,                                     !- Output External Shading Calculation Results
  No,                                     !- Disable Self-Shading Within Shading Zone Groups
  No;                                     !- Disable Self-Shading From Shading Zone Groups to Other Zones

OS:SurfaceConvectionAlgorithm:Outside,
  {89ac4795-18c4-4667-b1f3-bacd45989683}, !- Handle
  DOE-2;                                  !- Algorithm

OS:SurfaceConvectionAlgorithm:Inside,
  {553819a7-988c-4837-bf72-3b296cb02e65}, !- Handle
  TARP;                                   !- Algorithm

OS:ZoneCapacitanceMultiplier:ResearchSpecial,
  {49fa2161-26cb-4d18-87d6-d825dc747894}, !- Handle
  7,                                      !- Temperature Capacity Multiplier
  15,                                     !- Humidity Capacity Multiplier
  ;                                       !- Carbon Dioxide Capacity Multiplier

OS:ConvergenceLimits,
  {3accf0e9-05e2-4fed-b6fc-daa54d29bb6e}, !- Handle
  0;                                      !- Minimum System Timestep {minutes}

OS:RunPeriod,
  {2f945936-147e-4317-8814-e92409bef70c}, !- Handle
  Run Period 1,                           !- Name
  1,                                      !- Begin Month
  1,                                      !- Begin Day of Month
  12,                                     !- End Month
  31,                                     !- End Day of Month
  ,                                       !- Use Weather File Holidays and Special Days
  ,                                       !- Use Weather File Daylight Saving Period
  ,                                       !- Apply Weekend Holiday Rule
  ,                                       !- Use Weather File Rain Indicators
  ,                                       !- Use Weather File Snow Indicators
  ;                                       !- Number of Times Runperiod to be Repeated

OS:PerformancePrecisionTradeoffs,
  {70702289-da1b-47a7-9e6a-227f2bc9e077}, !- Handle
  ,                                       !- Use Coil Direct Solutions
  CarrollMRT;                             !- Zone Radiant Exchange Algorithm

OS:WeatherFile,
  {6114f7be-5da9-4e0b-8873-3495bf14baea}, !- Handle
  Buffalo Niagara Intl Ap,                !- City
  NY,                                     !- State Province Region
  USA,                                    !- Country
  TMY3,                                   !- Data Source
  725280,                                 !- WMO Number
  42.93,                                  !- Latitude {deg}
  -78.73,                                 !- Longitude {deg}
  -5,                                     !- Time Zone {hr}
  215,                                    !- Elevation {m}
  /Users/nmoore/github/urbanopt-example-geojson-project/example_project/weather/USA_NY_Buffalo-Greater.Buffalo.Intl.AP.725280_TMY3.epw, !- Url
  6B50E0FF,                               !- Checksum
  ,                                       !- Start Date Actual Year
  Sunday;                                 !- Start Day of Week

OS:YearDescription,
  {dbeb36c5-6bfe-49ff-bbce-37aa2d96f39a}, !- Handle
  2007,                                   !- Calendar Year
  ,                                       !- Day of Week for Start Day
  ;                                       !- Is Leap Year

OS:Site,
  {a28fcec4-5933-4fe4-94ef-b1350e1e2b68}, !- Handle
  Buffalo Niagara Intl Ap_NY,             !- Name
  42.93,                                  !- Latitude {deg}
  -78.73,                                 !- Longitude {deg}
  -5,                                     !- Time Zone {hr}
  215,                                    !- Elevation {m}
  Suburbs,                                !- Terrain
  Yes;                                    !- Keep Site Location Information

OS:RunPeriodControl:DaylightSavingTime,
  {cd8ff748-69a0-4504-bcf5-361718b8d6b8}, !- Handle
  Mar 12,                                 !- Start Date
  Nov 5;                                  !- End Date

OS:Site:GroundTemperature:Shallow,
  {e099bf05-9f65-4806-b224-f2a5021d2155}, !- Handle
  4.30207395723828,                       !- January Surface Ground Temperature {C}
  2.29327249652502,                       !- February Surface Ground Temperature {C}
  2.13240047156047,                       !- March Surface Ground Temperature {C}
  3.08567940719286,                       !- April Surface Ground Temperature {C}
  6.91256312497526,                       !- May Surface Ground Temperature {C}
  10.7216195949507,                       !- June Surface Ground Temperature {C}
  14.0238679822574,                       !- July Surface Ground Temperature {C}
  16.1157611184724,                       !- August Surface Ground Temperature {C}
  16.2934789303462,                       !- September Surface Ground Temperature {C}
  14.5920754632847,                       !- October Surface Ground Temperature {C}
  11.374036348653,                        !- November Surface Ground Temperature {C}
  7.68182621661674;                       !- December Surface Ground Temperature {C}

OS:ThermalZone,
  {d3d484c7-261f-4afb-a999-a0e76c4065ab}, !- Handle
  conditioned space,                      !- Name
  1,                                      !- Multiplier
  ,                                       !- Ceiling Height {m}
  692.06373070848,                        !- Volume {m3}
  ,                                       !- Floor Area {m2}
  ,                                       !- Zone Inside Convection Algorithm
  ,                                       !- Zone Outside Convection Algorithm
  ,                                       !- Zone Conditioning Equipment List Name
  {87303a3d-8251-499b-8605-4181fe586588}, !- Zone Air Inlet Port List
  {8a0fcfd3-bc75-4d2f-9484-85e639f38504}, !- Zone Air Exhaust Port List
  {2ef59540-ef41-4e95-8abc-0edf6b749f24}, !- Zone Air Node Name
  {575aa80a-f471-43a8-8402-d5f2ff2a46d3}, !- Zone Return Air Port List
  ,                                       !- Primary Daylighting Control Name
  ,                                       !- Fraction of Zone Controlled by Primary Daylighting Control
  ,                                       !- Secondary Daylighting Control Name
  ,                                       !- Fraction of Zone Controlled by Secondary Daylighting Control
  ,                                       !- Illuminance Map Name
  ,                                       !- Group Rendering Name
  {b88b58aa-466d-425e-ae4b-f4203d962a83}, !- Thermostat Name
  No;                                     !- Use Ideal Air Loads

OS:Node,
  {3b4a1cf2-018c-45fd-a30f-c7fcd9f670c2}, !- Handle
  Node 1,                                 !- Name
  {2ef59540-ef41-4e95-8abc-0edf6b749f24}, !- Inlet Port
  ;                                       !- Outlet Port

OS:Connection,
  {2ef59540-ef41-4e95-8abc-0edf6b749f24}, !- Handle
  {d3d484c7-261f-4afb-a999-a0e76c4065ab}, !- Source Object
  11,                                     !- Outlet Port
  {3b4a1cf2-018c-45fd-a30f-c7fcd9f670c2}, !- Target Object
  2;                                      !- Inlet Port

OS:PortList,
  {87303a3d-8251-499b-8605-4181fe586588}, !- Handle
  {d3d484c7-261f-4afb-a999-a0e76c4065ab}, !- HVAC Component
  {01f8a7a5-0fb1-4ff4-a4ee-eed54488f6fd}; !- Port 1

OS:PortList,
  {8a0fcfd3-bc75-4d2f-9484-85e639f38504}, !- Handle
  {d3d484c7-261f-4afb-a999-a0e76c4065ab}; !- HVAC Component

OS:PortList,
  {575aa80a-f471-43a8-8402-d5f2ff2a46d3}, !- Handle
  {d3d484c7-261f-4afb-a999-a0e76c4065ab}, !- HVAC Component
  {8533e47c-9230-4d58-a3aa-867a4ed55fee}; !- Port 1

OS:Sizing:Zone,
  {9755d61b-cfda-43ea-8842-2ffd0ef16fa8}, !- Handle
  {d3d484c7-261f-4afb-a999-a0e76c4065ab}, !- Zone or ZoneList Name
  SupplyAirTemperature,                   !- Zone Cooling Design Supply Air Temperature Input Method
  14,                                     !- Zone Cooling Design Supply Air Temperature {C}
  11.11,                                  !- Zone Cooling Design Supply Air Temperature Difference {deltaC}
  SupplyAirTemperature,                   !- Zone Heating Design Supply Air Temperature Input Method
  40,                                     !- Zone Heating Design Supply Air Temperature {C}
  11.11,                                  !- Zone Heating Design Supply Air Temperature Difference {deltaC}
  0.0085,                                 !- Zone Cooling Design Supply Air Humidity Ratio {kg-H2O/kg-air}
  0.008,                                  !- Zone Heating Design Supply Air Humidity Ratio {kg-H2O/kg-air}
  ,                                       !- Zone Heating Sizing Factor
  ,                                       !- Zone Cooling Sizing Factor
  DesignDay,                              !- Cooling Design Air Flow Method
  ,                                       !- Cooling Design Air Flow Rate {m3/s}
  ,                                       !- Cooling Minimum Air Flow per Zone Floor Area {m3/s-m2}
  ,                                       !- Cooling Minimum Air Flow {m3/s}
  ,                                       !- Cooling Minimum Air Flow Fraction
  DesignDay,                              !- Heating Design Air Flow Method
  ,                                       !- Heating Design Air Flow Rate {m3/s}
  ,                                       !- Heating Maximum Air Flow per Zone Floor Area {m3/s-m2}
  ,                                       !- Heating Maximum Air Flow {m3/s}
  ,                                       !- Heating Maximum Air Flow Fraction
  No,                                     !- Account for Dedicated Outdoor Air System
  NeutralSupplyAir,                       !- Dedicated Outdoor Air System Control Strategy
  autosize,                               !- Dedicated Outdoor Air Low Setpoint Temperature for Design {C}
  autosize,                               !- Dedicated Outdoor Air High Setpoint Temperature for Design {C}
  Sensible Load Only No Latent Load,      !- Zone Load Sizing Method
  HumidityRatioDifference,                !- Zone Latent Cooling Design Supply Air Humidity Ratio Input Method
  ,                                       !- Zone Dehumidification Design Supply Air Humidity Ratio {kgWater/kgDryAir}
  0.005,                                  !- Zone Cooling Design Supply Air Humidity Ratio Difference {kgWater/kgDryAir}
  HumidityRatioDifference,                !- Zone Latent Heating Design Supply Air Humidity Ratio Input Method
  ,                                       !- Zone Humidification Design Supply Air Humidity Ratio {kgWater/kgDryAir}
  0.005,                                  !- Zone Humidification Design Supply Air Humidity Ratio Difference {kgWater/kgDryAir}
  ,                                       !- Zone Humidistat Dehumidification Set Point Schedule Name
  ,                                       !- Zone Humidistat Humidification Set Point Schedule Name
  ,                                       !- Design Zone Air Distribution Effectiveness in Cooling Mode
  ,                                       !- Design Zone Air Distribution Effectiveness in Heating Mode
  ,                                       !- Design Zone Secondary Recirculation Fraction {dimensionless}
  ,                                       !- Design Minimum Zone Ventilation Efficiency {dimensionless}
  Coincident;                             !- Sizing Option

OS:ZoneHVAC:EquipmentList,
  {b91307da-1fb4-448d-91bc-fbef91f46211}, !- Handle
  Zone HVAC Equipment List 1,             !- Name
  {d3d484c7-261f-4afb-a999-a0e76c4065ab}, !- Thermal Zone
  ,                                       !- Load Distribution Scheme
  {37caa116-fcfb-4280-9945-d1b3b2832a99}, !- Zone Equipment 1
  1,                                      !- Zone Equipment Cooling Sequence 1
  1,                                      !- Zone Equipment Heating or No-Load Sequence 1
  {391f82b1-5206-4704-92a3-d32f3b3c8946}, !- Zone Equipment Sequential Cooling Fraction Schedule Name 1
  {b5c9a1dc-6468-4990-b4eb-fc4c1227ebdd}, !- Zone Equipment Sequential Heating Fraction Schedule Name 1
  {a0151f97-a1e3-45cc-be90-b9c25da32017}, !- Zone Equipment 2
  2,                                      !- Zone Equipment Cooling Sequence 2
  2,                                      !- Zone Equipment Heating or No-Load Sequence 2
  {e90a6505-d176-49e3-9859-8cfd14c25f2a}, !- Zone Equipment Sequential Cooling Fraction Schedule Name 2
  {c7a1275c-2aff-459d-93d7-e3b9dc1031cd}; !- Zone Equipment Sequential Heating Fraction Schedule Name 2

OS:AdditionalProperties,
  {91388af0-ef13-40c2-a264-b39e0158aeca}, !- Handle
  {d3d484c7-261f-4afb-a999-a0e76c4065ab}, !- Object Name
  ObjectType,                             !- Feature Name 1
  String,                                 !- Feature Data Type 1
  conditioned space;                      !- Feature Value 1

OS:Space,
  {e5b474b4-1111-4244-92e9-83f1c058a872}, !- Handle
  conditioned space 1,                    !- Name
  ,                                       !- Space Type Name
  ,                                       !- Default Construction Set Name
  ,                                       !- Default Schedule Set Name
  ,                                       !- Direction of Relative North {deg}
  ,                                       !- X Origin {m}
  ,                                       !- Y Origin {m}
  ,                                       !- Z Origin {m}
  ,                                       !- Building Story Name
  {d3d484c7-261f-4afb-a999-a0e76c4065ab}, !- Thermal Zone Name
  ,                                       !- Part of Total Floor Area
  ,                                       !- Design Specification Outdoor Air Object Name
  ,                                       !- Building Unit Name
  692.06373070848;                        !- Volume {m3}

OS:Schedule:Ruleset,
  {b8e84c2b-2d61-4918-acad-cf831e3a3b9a}, !- Handle
  heating setpoint,                       !- Name
  {43269623-e0bd-43e2-b6e3-7424eaeb907d}, !- Schedule Type Limits Name
  {a55dfc30-08a5-435c-85ad-2aa50b7b0b2e}; !- Default Day Schedule Name

OS:Schedule:Day,
  {a55dfc30-08a5-435c-85ad-2aa50b7b0b2e}, !- Handle
  heating setpoint default day,           !- Name
  {43269623-e0bd-43e2-b6e3-7424eaeb907d}, !- Schedule Type Limits Name
  ,                                       !- Interpolate to Timestep
  24,                                     !- Hour 1
  0,                                      !- Minute 1
  0;                                      !- Value Until Time 1

OS:Schedule:Rule,
  {a12b86e3-94e3-4a0b-83df-9c430e8ee1c2}, !- Handle
  heating setpoint allday rule,           !- Name
  {b8e84c2b-2d61-4918-acad-cf831e3a3b9a}, !- Schedule Ruleset Name
  0,                                      !- Rule Order
  {a977dd53-3016-4273-90d4-33a00b2ed89d}, !- Day Schedule Name
  Yes,                                    !- Apply Sunday
  Yes,                                    !- Apply Monday
  Yes,                                    !- Apply Tuesday
  Yes,                                    !- Apply Wednesday
  Yes,                                    !- Apply Thursday
  Yes,                                    !- Apply Friday
  Yes,                                    !- Apply Saturday
  DateRange,                              !- Date Specification Type
  1,                                      !- Start Month
  1,                                      !- Start Day
  12,                                     !- End Month
  31;                                     !- End Day

OS:Schedule:Day,
  {a977dd53-3016-4273-90d4-33a00b2ed89d}, !- Handle
  heating setpoint day,                   !- Name
  {43269623-e0bd-43e2-b6e3-7424eaeb907d}, !- Schedule Type Limits Name
  ,                                       !- Interpolate to Timestep
  24,                                     !- Hour 1
  0,                                      !- Minute 1
  20;                                     !- Value Until Time 1

OS:Schedule:Ruleset,
  {c92fe154-52ed-45b6-919f-b8f7cdbe3fa7}, !- Handle
  cooling setpoint,                       !- Name
  {43269623-e0bd-43e2-b6e3-7424eaeb907d}, !- Schedule Type Limits Name
  {55d37e3d-98d2-4776-8759-5b36fda8af32}; !- Default Day Schedule Name

OS:Schedule:Day,
  {55d37e3d-98d2-4776-8759-5b36fda8af32}, !- Handle
  cooling setpoint default day,           !- Name
  {43269623-e0bd-43e2-b6e3-7424eaeb907d}, !- Schedule Type Limits Name
  ,                                       !- Interpolate to Timestep
  24,                                     !- Hour 1
  0,                                      !- Minute 1
  0;                                      !- Value Until Time 1

OS:Schedule:Rule,
  {69779859-ed62-4d18-80a8-706e21cd3f63}, !- Handle
  cooling setpoint allday rule,           !- Name
  {c92fe154-52ed-45b6-919f-b8f7cdbe3fa7}, !- Schedule Ruleset Name
  0,                                      !- Rule Order
  {f30816b2-7dc4-42cc-a6a5-e1e60e9de1f2}, !- Day Schedule Name
  Yes,                                    !- Apply Sunday
  Yes,                                    !- Apply Monday
  Yes,                                    !- Apply Tuesday
  Yes,                                    !- Apply Wednesday
  Yes,                                    !- Apply Thursday
  Yes,                                    !- Apply Friday
  Yes,                                    !- Apply Saturday
  DateRange,                              !- Date Specification Type
  1,                                      !- Start Month
  1,                                      !- Start Day
  12,                                     !- End Month
  31;                                     !- End Day

OS:Schedule:Day,
  {f30816b2-7dc4-42cc-a6a5-e1e60e9de1f2}, !- Handle
  cooling setpoint day,                   !- Name
  {43269623-e0bd-43e2-b6e3-7424eaeb907d}, !- Schedule Type Limits Name
  ,                                       !- Interpolate to Timestep
  24,                                     !- Hour 1
  0,                                      !- Minute 1
  25.5555555555556;                       !- Value Until Time 1

OS:ThermostatSetpoint:DualSetpoint,
  {b88b58aa-466d-425e-ae4b-f4203d962a83}, !- Handle
  conditioned space temperature setpoint, !- Name
  {b8e84c2b-2d61-4918-acad-cf831e3a3b9a}, !- Heating Setpoint Temperature Schedule Name
  {c92fe154-52ed-45b6-919f-b8f7cdbe3fa7}, !- Cooling Setpoint Temperature Schedule Name
  0;                                      !- Temperature Difference Between Cutout And Setpoint {deltaC}

OS:ScheduleTypeLimits,
  {43269623-e0bd-43e2-b6e3-7424eaeb907d}, !- Handle
  Temperature,                            !- Name
  ,                                       !- Lower Limit Value
  ,                                       !- Upper Limit Value
  Continuous,                             !- Numeric Type
  Temperature;                            !- Unit Type

OS:Surface,
  {3775496f-de3b-4414-8817-e75808b8bfae}, !- Handle
  Roof1,                                  !- Name
  RoofCeiling,                            !- Surface Type
  {0b990f6c-0856-4c56-9705-e54e28020b59}, !- Construction Name
  {63d0af9b-4a07-437c-be88-01a28167d925}, !- Space Name
  Outdoors,                               !- Outside Boundary Condition
  ,                                       !- Outside Boundary Condition Object
  SunExposed,                             !- Sun Exposure
  WindExposed,                            !- Wind Exposure
  ,                                       !- View Factor to Ground
  ,                                       !- Number of Vertices
  -26.9347048849634, 58.0557891618865, 2.4384, !- X,Y,Z Vertex 1 {m}
  -26.9347048849634, 46.7895631136661, 8.0715130241102, !- X,Y,Z Vertex 2 {m}
  -14.3386812381136, 46.7895631136661, 8.0715130241102, !- X,Y,Z Vertex 3 {m}
  -14.3386812381136, 58.0557891618865, 2.4384; !- X,Y,Z Vertex 4 {m}

OS:AdditionalProperties,
  {35ceac08-0185-4826-93a5-c0d248424e1c}, !- Handle
  {3775496f-de3b-4414-8817-e75808b8bfae}, !- Object Name
  Length,                                 !- Feature Name 1
  Double,                                 !- Feature Data Type 1
  41.325536899113608,                     !- Feature Value 1
  Width,                                  !- Feature Name 2
  Double,                                 !- Feature Data Type 2
  41.325536899113601,                     !- Feature Value 2
  Azimuth,                                !- Feature Name 3
  Integer,                                !- Feature Data Type 3
  0,                                      !- Feature Value 3
  Tilt,                                   !- Feature Name 4
  Double,                                 !- Feature Data Type 4
  0.5,                                    !- Feature Value 4
  SurfaceType,                            !- Feature Name 5
  String,                                 !- Feature Data Type 5
  Roof;                                   !- Feature Value 5

OS:ThermalZone,
  {d11baefe-8a88-4958-822e-f43296774b82}, !- Handle
  attic - vented,                         !- Name
  1,                                      !- Multiplier
  ,                                       !- Ceiling Height {m}
  356.390921899745,                       !- Volume {m3}
  ,                                       !- Floor Area {m2}
  ,                                       !- Zone Inside Convection Algorithm
  ,                                       !- Zone Outside Convection Algorithm
  ,                                       !- Zone Conditioning Equipment List Name
  {8ae60eae-e684-4a93-aaf1-57f9cf75896b}, !- Zone Air Inlet Port List
  {dca2089f-afec-4a68-be70-393e54c3e393}, !- Zone Air Exhaust Port List
  {3dde1752-a3c5-433c-b33c-8a0dee90d167}, !- Zone Air Node Name
  {45e03b0c-fca7-4803-b60b-8de7e8ec3b5b}, !- Zone Return Air Port List
  ,                                       !- Primary Daylighting Control Name
  ,                                       !- Fraction of Zone Controlled by Primary Daylighting Control
  ,                                       !- Secondary Daylighting Control Name
  ,                                       !- Fraction of Zone Controlled by Secondary Daylighting Control
  ,                                       !- Illuminance Map Name
  ,                                       !- Group Rendering Name
  ,                                       !- Thermostat Name
  No;                                     !- Use Ideal Air Loads

OS:Node,
  {89eb3d05-9d8a-455a-856e-80687ded237f}, !- Handle
  Node 2,                                 !- Name
  {3dde1752-a3c5-433c-b33c-8a0dee90d167}, !- Inlet Port
  ;                                       !- Outlet Port

OS:Connection,
  {3dde1752-a3c5-433c-b33c-8a0dee90d167}, !- Handle
  {d11baefe-8a88-4958-822e-f43296774b82}, !- Source Object
  11,                                     !- Outlet Port
  {89eb3d05-9d8a-455a-856e-80687ded237f}, !- Target Object
  2;                                      !- Inlet Port

OS:PortList,
  {8ae60eae-e684-4a93-aaf1-57f9cf75896b}, !- Handle
  {d11baefe-8a88-4958-822e-f43296774b82}; !- HVAC Component

OS:PortList,
  {dca2089f-afec-4a68-be70-393e54c3e393}, !- Handle
  {d11baefe-8a88-4958-822e-f43296774b82}; !- HVAC Component

OS:PortList,
  {45e03b0c-fca7-4803-b60b-8de7e8ec3b5b}, !- Handle
  {d11baefe-8a88-4958-822e-f43296774b82}; !- HVAC Component

OS:Sizing:Zone,
  {93f8ec79-1154-4497-85bc-375a91ea8fac}, !- Handle
  {d11baefe-8a88-4958-822e-f43296774b82}, !- Zone or ZoneList Name
  SupplyAirTemperature,                   !- Zone Cooling Design Supply Air Temperature Input Method
  14,                                     !- Zone Cooling Design Supply Air Temperature {C}
  11.11,                                  !- Zone Cooling Design Supply Air Temperature Difference {deltaC}
  SupplyAirTemperature,                   !- Zone Heating Design Supply Air Temperature Input Method
  40,                                     !- Zone Heating Design Supply Air Temperature {C}
  11.11,                                  !- Zone Heating Design Supply Air Temperature Difference {deltaC}
  0.0085,                                 !- Zone Cooling Design Supply Air Humidity Ratio {kg-H2O/kg-air}
  0.008,                                  !- Zone Heating Design Supply Air Humidity Ratio {kg-H2O/kg-air}
  ,                                       !- Zone Heating Sizing Factor
  ,                                       !- Zone Cooling Sizing Factor
  DesignDay,                              !- Cooling Design Air Flow Method
  ,                                       !- Cooling Design Air Flow Rate {m3/s}
  ,                                       !- Cooling Minimum Air Flow per Zone Floor Area {m3/s-m2}
  ,                                       !- Cooling Minimum Air Flow {m3/s}
  ,                                       !- Cooling Minimum Air Flow Fraction
  DesignDay,                              !- Heating Design Air Flow Method
  ,                                       !- Heating Design Air Flow Rate {m3/s}
  ,                                       !- Heating Maximum Air Flow per Zone Floor Area {m3/s-m2}
  ,                                       !- Heating Maximum Air Flow {m3/s}
  ,                                       !- Heating Maximum Air Flow Fraction
  No,                                     !- Account for Dedicated Outdoor Air System
  NeutralSupplyAir,                       !- Dedicated Outdoor Air System Control Strategy
  autosize,                               !- Dedicated Outdoor Air Low Setpoint Temperature for Design {C}
  autosize,                               !- Dedicated Outdoor Air High Setpoint Temperature for Design {C}
  Sensible Load Only No Latent Load,      !- Zone Load Sizing Method
  HumidityRatioDifference,                !- Zone Latent Cooling Design Supply Air Humidity Ratio Input Method
  ,                                       !- Zone Dehumidification Design Supply Air Humidity Ratio {kgWater/kgDryAir}
  0.005,                                  !- Zone Cooling Design Supply Air Humidity Ratio Difference {kgWater/kgDryAir}
  HumidityRatioDifference,                !- Zone Latent Heating Design Supply Air Humidity Ratio Input Method
  ,                                       !- Zone Humidification Design Supply Air Humidity Ratio {kgWater/kgDryAir}
  0.005,                                  !- Zone Humidification Design Supply Air Humidity Ratio Difference {kgWater/kgDryAir}
  ,                                       !- Zone Humidistat Dehumidification Set Point Schedule Name
  ,                                       !- Zone Humidistat Humidification Set Point Schedule Name
  ,                                       !- Design Zone Air Distribution Effectiveness in Cooling Mode
  ,                                       !- Design Zone Air Distribution Effectiveness in Heating Mode
  ,                                       !- Design Zone Secondary Recirculation Fraction {dimensionless}
  ,                                       !- Design Minimum Zone Ventilation Efficiency {dimensionless}
  Coincident;                             !- Sizing Option

OS:ZoneHVAC:EquipmentList,
  {6529bc89-99b9-41e8-9589-6259574f8c38}, !- Handle
  Zone HVAC Equipment List 2,             !- Name
  {d11baefe-8a88-4958-822e-f43296774b82}; !- Thermal Zone

OS:AdditionalProperties,
  {987e9de1-f494-4bbb-943f-b0290bc014e9}, !- Handle
  {d11baefe-8a88-4958-822e-f43296774b82}, !- Object Name
  ObjectType,                             !- Feature Name 1
  String,                                 !- Feature Data Type 1
  attic - vented;                         !- Feature Value 1

OS:Space,
  {63d0af9b-4a07-437c-be88-01a28167d925}, !- Handle
  attic - vented 1,                       !- Name
  ,                                       !- Space Type Name
  ,                                       !- Default Construction Set Name
  ,                                       !- Default Schedule Set Name
  ,                                       !- Direction of Relative North {deg}
  ,                                       !- X Origin {m}
  ,                                       !- Y Origin {m}
  ,                                       !- Z Origin {m}
  ,                                       !- Building Story Name
  {d11baefe-8a88-4958-822e-f43296774b82}, !- Thermal Zone Name
  ,                                       !- Part of Total Floor Area
  ,                                       !- Design Specification Outdoor Air Object Name
  ,                                       !- Building Unit Name
  356.390921899745;                       !- Volume {m3}

OS:Material,
  {aa2a3314-4397-46d6-b591-40dcc51d1522}, !- Handle
  asphalt or fiberglass shingles,         !- Name