
OS:Version,
  {90d18e58-5543-41ce-b79d-23cb9cd78a45}, !- Handle
  3.10.0;                                 !- Version Identifier

OS:SimulationControl,
  {3506979a-6fb6-4985-9c58-543e90eef1a0}, !- Handle
  ,                                       !- Do Zone Sizing Calculation
  ,                                       !- Do System Sizing Calculation
  ,                                       !- Do Plant Sizing Calculation
  No;                                     !- Run Simulation for Sizing Periods

OS:Timestep,
  {d0c8b7ca-7059-4210-a1a3-f75603cef895}, !- Handle
  1;                                      !- Number of Timesteps per Hour

OS:ShadowCalculation,
  {addff846-1335-4e68-9902-d1890a725f60}, !- Handle
  PolygonClipping,                        !- Shading Calculation Method
  ,                                       !- Shading Calculation Update Frequency Method
  20,                                     !- Shading Calculation Update Frequency
  200,                                    !- Maximum Figures in Shadow Overlap Calculations
  ,                                       !- Polygon Clipping Algorithm
  512,                                    !- Pixel Counting Resolution
  ,                                       !- Sky Diffuse Modeling Algorithm
  No,                                     !- Output External Shading Calculation Results
  No,                                     !- Disable Self-Shading Within Shading Zone Groups
  No;                                     !- Disable Self-Shading From Shading Zone Groups to Other Zones

OS:SurfaceConvectionAlgorithm:Outside,
  {ab3f841f-1e3d-42d2-8736-a7d964459b1f}, !- Handle
  DOE-2;                                  !- Algorithm

OS:SurfaceConvectionAlgorithm:Inside,
  {0896e31d-04eb-489f-9218-2db5398110cb}, !- Handle
  TARP;                                   !- Algorithm

OS:ZoneCapacitanceMultiplier:ResearchSpecial,
  {94518ddb-1bfe-48d0-94f5-1ff91341c7d6}, !- Handle
  7,                                      !- Temperature Capacity Multiplier
  15,                                     !- Humidity Capacity Multiplier
  ;                                       !- Carbon Dioxide Capacity Multiplier

OS:ConvergenceLimits,
  {d297a0db-6d97-430f-90be-6378c241e078}, !- Handle
  0;                                      !- Minimum System Timestep {minutes}

OS:RunPeriod,
  {97719d23-a530-43d8-9054-95d33c77fa2c}, !- Handle
  Run Period 1,                           !- Name
  1,                                      !- Begin Month
  1,                                      !- Begin Day of Month
  12,                                     !- End Month
  31,                                     !- End Day of Month
  ,                                       !- Use Weather File Holidays and Special Days
  ,                                       !- Use Weather File Daylight Saving Period
  ,                                       !- Apply Weekend Holiday Rule
  ,                                       !- Use Weather File Rain Indicators
  ,                                       !- Use Weather File Snow Indicators
  ;                                       !- Number of Times Runperiod to be Repeated

OS:PerformancePrecisionTradeoffs,
  {c3d7141e-0ea3-4a46-996a-25f0803b4039}, !- Handle
  ,                                       !- Use Coil Direct Solutions
  CarrollMRT;                             !- Zone Radiant Exchange Algorithm

OS:WeatherFile,
  {14f16c31-ad88-402e-8e60-46d44ae1bf09}, !- Handle
  Buffalo Niagara Intl Ap,                !- City
  NY,                                     !- State Province Region
  USA,                                    !- Country
  TMY3,                                   !- Data Source
  725280,                                 !- WMO Number
  42.93,                                  !- Latitude {deg}
  -78.73,                                 !- Longitude {deg}
  -5,                                     !- Time Zone {hr}
  215,                                    !- Elevation {m}
  /Users/nmoore/github/urbanopt-example-geojson-project/example_project/weather/USA_NY_Buffalo-Greater.Buffalo.Intl.AP.725280_TMY3.epw, !- Url
  6B50E0FF,                               !- Checksum
  ,                                       !- Start Date Actual Year
  Sunday;                                 !- Start Day of Week

OS:YearDescription,
  {5de1a8fc-3b5f-4345-a082-e7259ee055d4}, !- Handle
  2007,                                   !- Calendar Year
  ,                                       !- Day of Week for Start Day
  ;                                       !- Is Leap Year

OS:Site,
  {0e5d7311-434e-4de0-b12b-03cdd8feaf06}, !- Handle
  Buffalo Niagara Intl Ap_NY,             !- Name
  42.93,                                  !- Latitude {deg}
  -78.73,                                 !- Longitude {deg}
  -5,                                     !- Time Zone {hr}
  215,                                    !- Elevation {m}
  Suburbs,                                !- Terrain
  Yes;                                    !- Keep Site Location Information

OS:RunPeriodControl:DaylightSavingTime,
  {657c1450-d283-4b78-a710-7b7505412f10}, !- Handle
  Mar 12,                                 !- Start Date
  Nov 5;                                  !- End Date

OS:Site:GroundTemperature:Shallow,
  {c6b98200-d85d-4da9-95d3-7d3500a4bda5}, !- Handle
  4.30207395723828,                       !- January Surface Ground Temperature {C}
  2.29327249652502,                       !- February Surface Ground Temperature {C}
  2.13240047156047,                       !- March Surface Ground Temperature {C}
  3.08567940719286,                       !- April Surface Ground Temperature {C}
  6.91256312497526,                       !- May Surface Ground Temperature {C}
  10.7216195949507,                       !- June Surface Ground Temperature {C}
  14.0238679822574,                       !- July Surface Ground Temperature {C}
  16.1157611184724,                       !- August Surface Ground Temperature {C}
  16.2934789303462,                       !- September Surface Ground Temperature {C}
  14.5920754632847,                       !- October Surface Ground Temperature {C}
  11.374036348653,                        !- November Surface Ground Temperature {C}
  7.68182621661674;                       !- December Surface Ground Temperature {C}

OS:ThermalZone,
  {03a5a4e2-8e63-48db-8522-4a5754ba5108}, !- Handle
  conditioned space,                      !- Name
  1,                                      !- Multiplier
  ,                                       !- Ceiling Height {m}
  692.06373070848,                        !- Volume {m3}
  ,                                       !- Floor Area {m2}
  ,                                       !- Zone Inside Convection Algorithm
  ,                                       !- Zone Outside Convection Algorithm
  ,                                       !- Zone Conditioning Equipment List Name
  {4a4c1dce-294e-497f-a273-eb2af182aad1}, !- Zone Air Inlet Port List
  {a57018ae-d294-40e9-8b15-dd195d376b19}, !- Zone Air Exhaust Port List
  {9df302f3-dde0-4ff0-8cba-0a221d38abe4}, !- Zone Air Node Name
  {06674461-e788-469b-90f9-4acc5e200489}, !- Zone Return Air Port List
  ,                                       !- Primary Daylighting Control Name
  ,                                       !- Fraction of Zone Controlled by Primary Daylighting Control
  ,                                       !- Secondary Daylighting Control Name
  ,                                       !- Fraction of Zone Controlled by Secondary Daylighting Control
  ,                                       !- Illuminance Map Name
  ,                                       !- Group Rendering Name
  {75bd555e-bdd9-4a4a-af81-b908117b6a4e}, !- Thermostat Name
  No;                                     !- Use Ideal Air Loads

OS:Node,
  {3263da45-7349-48f8-8c9a-2cd7835c650a}, !- Handle
  Node 1,                                 !- Name
  {9df302f3-dde0-4ff0-8cba-0a221d38abe4}, !- Inlet Port
  ;                                       !- Outlet Port

OS:Connection,
  {9df302f3-dde0-4ff0-8cba-0a221d38abe4}, !- Handle
  {03a5a4e2-8e63-48db-8522-4a5754ba5108}, !- Source Object
  11,                                     !- Outlet Port
  {3263da45-7349-48f8-8c9a-2cd7835c650a}, !- Target Object
  2;                                      !- Inlet Port

OS:PortList,
  {4a4c1dce-294e-497f-a273-eb2af182aad1}, !- Handle
  {03a5a4e2-8e63-48db-8522-4a5754ba5108}, !- HVAC Component
  {5884a0a4-a423-4832-951f-96b8a5a69f21}; !- Port 1

OS:PortList,
  {a57018ae-d294-40e9-8b15-dd195d376b19}, !- Handle
  {03a5a4e2-8e63-48db-8522-4a5754ba5108}; !- HVAC Component

OS:PortList,
  {06674461-e788-469b-90f9-4acc5e200489}, !- Handle
  {03a5a4e2-8e63-48db-8522-4a5754ba5108}, !- HVAC Component
  {118c55fe-0f59-4732-8350-d9e3bd6c98fe}; !- Port 1

OS:Sizing:Zone,
  {c30758e0-4c2f-408a-b81d-e3f738f0bc75}, !- Handle
  {03a5a4e2-8e63-48db-8522-4a5754ba5108}, !- Zone or ZoneList Name
  SupplyAirTemperature,                   !- Zone Cooling Design Supply Air Temperature Input Method
  14,                                     !- Zone Cooling Design Supply Air Temperature {C}
  11.11,                                  !- Zone Cooling Design Supply Air Temperature Difference {deltaC}
  SupplyAirTemperature,                   !- Zone Heating Design Supply Air Temperature Input Method
  40,                                     !- Zone Heating Design Supply Air Temperature {C}
  11.11,                                  !- Zone Heating Design Supply Air Temperature Difference {deltaC}
  0.0085,                                 !- Zone Cooling Design Supply Air Humidity Ratio {kg-H2O/kg-air}
  0.008,                                  !- Zone Heating Design Supply Air Humidity Ratio {kg-H2O/kg-air}
  ,                                       !- Zone Heating Sizing Factor
  ,                                       !- Zone Cooling Sizing Factor
  DesignDay,                              !- Cooling Design Air Flow Method
  ,                                       !- Cooling Design Air Flow Rate {m3/s}
  ,                                       !- Cooling Minimum Air Flow per Zone Floor Area {m3/s-m2}
  ,                                       !- Cooling Minimum Air Flow {m3/s}
  ,                                       !- Cooling Minimum Air Flow Fraction
  DesignDay,                              !- Heating Design Air Flow Method
  ,                                       !- Heating Design Air Flow Rate {m3/s}
  ,                                       !- Heating Maximum Air Flow per Zone Floor Area {m3/s-m2}
  ,                                       !- Heating Maximum Air Flow {m3/s}
  ,                                       !- Heating Maximum Air Flow Fraction
  No,                                     !- Account for Dedicated Outdoor Air System
  NeutralSupplyAir,                       !- Dedicated Outdoor Air System Control Strategy
  autosize,                               !- Dedicated Outdoor Air Low Setpoint Temperature for Design {C}
  autosize,                               !- Dedicated Outdoor Air High Setpoint Temperature for Design {C}
  Sensible Load Only No Latent Load,      !- Zone Load Sizing Method
  HumidityRatioDifference,                !- Zone Latent Cooling Design Supply Air Humidity Ratio Input Method
  ,                                       !- Zone Dehumidification Design Supply Air Humidity Ratio {kgWater/kgDryAir}
  0.005,                                  !- Zone Cooling Design Supply Air Humidity Ratio Difference {kgWater/kgDryAir}
  HumidityRatioDifference,                !- Zone Latent Heating Design Supply Air Humidity Ratio Input Method
  ,                                       !- Zone Humidification Design Supply Air Humidity Ratio {kgWater/kgDryAir}
  0.005,                                  !- Zone Humidification Design Supply Air Humidity Ratio Difference {kgWater/kgDryAir}
  ,                                       !- Zone Humidistat Dehumidification Set Point Schedule Name
  ,                                       !- Zone Humidistat Humidification Set Point Schedule Name
  ,                                       !- Design Zone Air Distribution Effectiveness in Cooling Mode
  ,                                       !- Design Zone Air Distribution Effectiveness in Heating Mode
  ,                                       !- Design Zone Secondary Recirculation Fraction {dimensionless}
  ,                                       !- Design Minimum Zone Ventilation Efficiency {dimensionless}
  Coincident;                             !- Sizing Option

OS:ZoneHVAC:EquipmentList,
  {042ad00d-7fa3-49d5-8cba-4f1269ba19d3}, !- Handle
  Zone HVAC Equipment List 1,             !- Name
  {03a5a4e2-8e63-48db-8522-4a5754ba5108}, !- Thermal Zone
  ,                                       !- Load Distribution Scheme
  {641ea519-877a-4fbf-9c66-45d0f6aa45c5}, !- Zone Equipment 1
  1,                                      !- Zone Equipment Cooling Sequence 1
  1,                                      !- Zone Equipment Heating or No-Load Sequence 1
  {5828ee0c-a01f-46bb-91e0-671717c7ced5}, !- Zone Equipment Sequential Cooling Fraction Schedule Name 1
  {df738125-5bab-4d5f-8af2-e3abc465cc0c}, !- Zone Equipment Sequential Heating Fraction Schedule Name 1
  {31f99116-5bfd-4d12-a86f-2acacf173c17}, !- Zone Equipment 2
  2,                                      !- Zone Equipment Cooling Sequence 2
  2,                                      !- Zone Equipment Heating or No-Load Sequence 2
  {1fd01130-fcd3-4496-9ae2-28fd6625da11}, !- Zone Equipment Sequential Cooling Fraction Schedule Name 2
  {9843d7e9-a330-4c0b-9c45-3b0113e8dfe0}; !- Zone Equipment Sequential Heating Fraction Schedule Name 2

OS:AdditionalProperties,
  {a3e02ca9-186c-4309-9426-4bae81b6b3f8}, !- Handle
  {03a5a4e2-8e63-48db-8522-4a5754ba5108}, !- Object Name
  ObjectType,                             !- Feature Name 1
  String,                                 !- Feature Data Type 1
  conditioned space;                      !- Feature Value 1

OS:Space,
  {da410860-06f4-4cf6-aadf-90132b513881}, !- Handle
  conditioned space 1,                    !- Name
  ,                                       !- Space Type Name
  ,                                       !- Default Construction Set Name
  ,                                       !- Default Schedule Set Name
  ,                                       !- Direction of Relative North {deg}
  ,                                       !- X Origin {m}
  ,                                       !- Y Origin {m}
  ,                                       !- Z Origin {m}
  ,                                       !- Building Story Name
  {03a5a4e2-8e63-48db-8522-4a5754ba5108}, !- Thermal Zone Name
  ,                                       !- Part of Total Floor Area
  ,                                       !- Design Specification Outdoor Air Object Name
  ,                                       !- Building Unit Name
  692.06373070848;                        !- Volume {m3}

OS:Schedule:Ruleset,
  {d80e2c86-ead2-4e55-9bc6-5b1f0d908607}, !- Handle
  heating setpoint,                       !- Name
  {34e3c771-932a-48e8-a6c1-134448ee9f83}, !- Schedule Type Limits Name
  {fd9894e4-70e6-4662-86e6-38d41d94a1eb}; !- Default Day Schedule Name

OS:Schedule:Day,
  {fd9894e4-70e6-4662-86e6-38d41d94a1eb}, !- Handle
  heating setpoint default day,           !- Name
  {34e3c771-932a-48e8-a6c1-134448ee9f83}, !- Schedule Type Limits Name
  ,                                       !- Interpolate to Timestep
  24,                                     !- Hour 1
  0,                                      !- Minute 1
  0;                                      !- Value Until Time 1

OS:Schedule:Rule,
  {8bb8818a-d65e-41e1-8eb9-1e3625173ba8}, !- Handle
  heating setpoint allday rule,           !- Name
  {d80e2c86-ead2-4e55-9bc6-5b1f0d908607}, !- Schedule Ruleset Name
  0,                                      !- Rule Order
  {996b3987-38f2-451f-840c-3da877e9ce81}, !- Day Schedule Name
  Yes,                                    !- Apply Sunday
  Yes,                                    !- Apply Monday
  Yes,                                    !- Apply Tuesday
  Yes,                                    !- Apply Wednesday
  Yes,                                    !- Apply Thursday
  Yes,                                    !- Apply Friday
  Yes,                                    !- Apply Saturday
  DateRange,                              !- Date Specification Type
  1,                                      !- Start Month
  1,                                      !- Start Day
  12,                                     !- End Month
  31;                                     !- End Day

OS:Schedule:Day,
  {996b3987-38f2-451f-840c-3da877e9ce81}, !- Handle
  heating setpoint day,                   !- Name
  {34e3c771-932a-48e8-a6c1-134448ee9f83}, !- Schedule Type Limits Name
  ,                                       !- Interpolate to Timestep
  24,                                     !- Hour 1
  0,                                      !- Minute 1
  20;                                     !- Value Until Time 1

OS:Schedule:Ruleset,
  {9cfa4f03-c24a-4427-8c04-3b32d03bc7d8}, !- Handle
  cooling setpoint,                       !- Name
  {34e3c771-932a-48e8-a6c1-134448ee9f83}, !- Schedule Type Limits Name
  {ac38c1c8-513a-4c6a-9559-19bdeefd1611}; !- Default Day Schedule Name

OS:Schedule:Day,
  {ac38c1c8-513a-4c6a-9559-19bdeefd1611}, !- Handle
  cooling setpoint default day,           !- Name
  {34e3c771-932a-48e8-a6c1-134448ee9f83}, !- Schedule Type Limits Name
  ,                                       !- Interpolate to Timestep
  24,                                     !- Hour 1
  0,                                      !- Minute 1
  0;                                      !- Value Until Time 1

OS:Schedule:Rule,
  {373044c2-8305-43bc-a93a-f02536b12aa0}, !- Handle
  cooling setpoint allday rule,           !- Name
  {9cfa4f03-c24a-4427-8c04-3b32d03bc7d8}, !- Schedule Ruleset Name
  0,                                      !- Rule Order
  {de78b4d9-bb95-4af2-99ee-e0f16f8b7dd2}, !- Day Schedule Name
  Yes,                                    !- Apply Sunday
  Yes,                                    !- Apply Monday
  Yes,                                    !- Apply Tuesday
  Yes,                                    !- Apply Wednesday
  Yes,                                    !- Apply Thursday
  Yes,                                    !- Apply Friday
  Yes,                                    !- Apply Saturday
  DateRange,                              !- Date Specification Type
  1,                                      !- Start Month
  1,                                      !- Start Day
  12,                                     !- End Month
  31;                                     !- End Day

OS:Schedule:Day,
  {de78b4d9-bb95-4af2-99ee-e0f16f8b7dd2}, !- Handle
  cooling setpoint day,                   !- Name
  {34e3c771-932a-48e8-a6c1-134448ee9f83}, !- Schedule Type Limits Name
  ,                                       !- Interpolate to Timestep
  24,                                     !- Hour 1
  0,                                      !- Minute 1
  25.5555555555556;                       !- Value Until Time 1

OS:ThermostatSetpoint:DualSetpoint,
  {75bd555e-bdd9-4a4a-af81-b908117b6a4e}, !- Handle
  conditioned space temperature setpoint, !- Name
  {d80e2c86-ead2-4e55-9bc6-5b1f0d908607}, !- Heating Setpoint Temperature Schedule Name
  {9cfa4f03-c24a-4427-8c04-3b32d03bc7d8}, !- Cooling Setpoint Temperature Schedule Name
  0;                                      !- Temperature Difference Between Cutout And Setpoint {deltaC}

OS:ScheduleTypeLimits,
  {34e3c771-932a-48e8-a6c1-134448ee9f83}, !- Handle
  Temperature,                            !- Name
  ,                                       !- Lower Limit Value
  ,                                       !- Upper Limit Value
  Continuous,                             !- Numeric Type
  Temperature;                            !- Unit Type

OS:Surface,
  {cb1ed04b-fb6e-421b-87cd-2c6a35076d32}, !- Handle
  Roof1,                                  !- Name
  RoofCeiling,                            !- Surface Type
  {7cb43a8a-0067-420b-8b74-018be7966c9c}, !- Construction Name
  {2cd65022-3083-45e1-abb4-50038fede671}, !- Space Name
  Outdoors,                               !- Outside Boundary Condition
  ,                                       !- Outside Boundary Condition Object
  SunExposed,                             !- Sun Exposure
  WindExposed,                            !- Wind Exposure
  ,                                       !- View Factor to Ground
  ,                                       !- Number of Vertices
  -26.9347048849634, 58.0557891618865, 2.4384, !- X,Y,Z Vertex 1 {m}
  -26.9347048849634, 46.7895631136661, 8.0715130241102, !- X,Y,Z Vertex 2 {m}
  -14.3386812381136, 46.7895631136661, 8.0715130241102, !- X,Y,Z Vertex 3 {m}
  -14.3386812381136, 58.0557891618865, 2.4384; !- X,Y,Z Vertex 4 {m}

OS:AdditionalProperties,
  {8f578a0b-508f-4586-9c33-6df00ae1ae9c}, !- Handle
  {cb1ed04b-fb6e-421b-87cd-2c6a35076d32}, !- Object Name
  Length,                                 !- Feature Name 1
  Double,                                 !- Feature Data Type 1
  41.325536899113608,                     !- Feature Value 1
  Width,                                  !- Feature Name 2
  Double,                                 !- Feature Data Type 2
  41.325536899113601,                     !- Feature Value 2
  Azimuth,                                !- Feature Name 3
  Integer,                                !- Feature Data Type 3
  0,                                      !- Feature Value 3
  Tilt,                                   !- Feature Name 4
  Double,                                 !- Feature Data Type 4
  0.5,                                    !- Feature Value 4
  SurfaceType,                            !- Feature Name 5
  String,                                 !- Feature Data Type 5
  Roof;                                   !- Feature Value 5

OS:ThermalZone,
  {bccae81b-ab6e-4972-b1a5-d3756e861ae1}, !- Handle
  attic - vented,                         !- Name
  1,                                      !- Multiplier
  ,                                       !- Ceiling Height {m}
  356.390921899745,                       !- Volume {m3}
  ,                                       !- Floor Area {m2}
  ,                                       !- Zone Inside Convection Algorithm
  ,                                       !- Zone Outside Convection Algorithm
  ,                                       !- Zone Conditioning Equipment List Name
  {2616468f-a03a-4e16-99d6-f910028fe91a}, !- Zone Air Inlet Port List
  {dbfc4c24-e566-4b10-8d13-6f542a63939e}, !- Zone Air Exhaust Port List
  {2894a7cb-b9ea-4d6e-b07b-849132f87306}, !- Zone Air Node Name
  {91fbd175-63ae-44ae-b15d-35c433f603d9}, !- Zone Return Air Port List
  ,                                       !- Primary Daylighting Control Name
  ,                                       !- Fraction of Zone Controlled by Primary Daylighting Control
  ,                                       !- Secondary Daylighting Control Name
  ,                                       !- Fraction of Zone Controlled by Secondary Daylighting Control
  ,                                       !- Illuminance Map Name
  ,                                       !- Group Rendering Name
  ,                                       !- Thermostat Name
  No;                                     !- Use Ideal Air Loads

OS:Node,
  {9d075a66-15f1-49bf-9852-86852ba55c27}, !- Handle
  Node 2,                                 !- Name
  {2894a7cb-b9ea-4d6e-b07b-849132f87306}, !- Inlet Port
  ;                                       !- Outlet Port

OS:Connection,
  {2894a7cb-b9ea-4d6e-b07b-849132f87306}, !- Handle
  {bccae81b-ab6e-4972-b1a5-d3756e861ae1}, !- Source Object
  11,                                     !- Outlet Port
  {9d075a66-15f1-49bf-9852-86852ba55c27}, !- Target Object
  2;                                      !- Inlet Port

OS:PortList,
  {2616468f-a03a-4e16-99d6-f910028fe91a}, !- Handle
  {bccae81b-ab6e-4972-b1a5-d3756e861ae1}; !- HVAC Component

OS:PortList,
  {dbfc4c24-e566-4b10-8d13-6f542a63939e}, !- Handle
  {bccae81b-ab6e-4972-b1a5-d3756e861ae1}; !- HVAC Component

OS:PortList,
  {91fbd175-63ae-44ae-b15d-35c433f603d9}, !- Handle
  {bccae81b-ab6e-4972-b1a5-d3756e861ae1}; !- HVAC Component

OS:Sizing:Zone,
  {ad0aefda-c376-439e-8e6c-e54b1a386d27}, !- Handle
  {bccae81b-ab6e-4972-b1a5-d3756e861ae1}, !- Zone or ZoneList Name
  SupplyAirTemperature,                   !- Zone Cooling Design Supply Air Temperature Input Method
  14,                                     !- Zone Cooling Design Supply Air Temperature {C}
  11.11,                                  !- Zone Cooling Design Supply Air Temperature Difference {deltaC}
  SupplyAirTemperature,                   !- Zone Heating Design Supply Air Temperature Input Method
  40,                                     !- Zone Heating Design Supply Air Temperature {C}
  11.11,                                  !- Zone Heating Design Supply Air Temperature Difference {deltaC}
  0.0085,                                 !- Zone Cooling Design Supply Air Humidity Ratio {kg-H2O/kg-air}
  0.008,                                  !- Zone Heating Design Supply Air Humidity Ratio {kg-H2O/kg-air}
  ,                                       !- Zone Heating Sizing Factor
  ,                                       !- Zone Cooling Sizing Factor
  DesignDay,                              !- Cooling Design Air Flow Method
  ,                                       !- Cooling Design Air Flow Rate {m3/s}
  ,                                       !- Cooling Minimum Air Flow per Zone Floor Area {m3/s-m2}
  ,                                       !- Cooling Minimum Air Flow {m3/s}
  ,                                       !- Cooling Minimum Air Flow Fraction
  DesignDay,                              !- Heating Design Air Flow Method
  ,                                       !- Heating Design Air Flow Rate {m3/s}
  ,                                       !- Heating Maximum Air Flow per Zone Floor Area {m3/s-m2}
  ,                                       !- Heating Maximum Air Flow {m3/s}
  ,                                       !- Heating Maximum Air Flow Fraction
  No,                                     !- Account for Dedicated Outdoor Air System
  NeutralSupplyAir,                       !- Dedicated Outdoor Air System Control Strategy
  autosize,                               !- Dedicated Outdoor Air Low Setpoint Temperature for Design {C}
  autosize,                               !- Dedicated Outdoor Air High Setpoint Temperature for Design {C}
  Sensible Load Only No Latent Load,      !- Zone Load Sizing Method
  HumidityRatioDifference,                !- Zone Latent Cooling Design Supply Air Humidity Ratio Input Method
  ,                                       !- Zone Dehumidification Design Supply Air Humidity Ratio {kgWater/kgDryAir}
  0.005,                                  !- Zone Cooling Design Supply Air Humidity Ratio Difference {kgWater/kgDryAir}
  HumidityRatioDifference,                !- Zone Latent Heating Design Supply Air Humidity Ratio Input Method
  ,                                       !- Zone Humidification Design Supply Air Humidity Ratio {kgWater/kgDryAir}
  0.005,                                  !- Zone Humidification Design Supply Air Humidity Ratio Difference {kgWater/kgDryAir}
  ,                                       !- Zone Humidistat Dehumidification Set Point Schedule Name
  ,                                       !- Zone Humidistat Humidification Set Point Schedule Name
  ,                                       !- Design Zone Air Distribution Effectiveness in Cooling Mode
  ,                                       !- Design Zone Air Distribution Effectiveness in Heating Mode
  ,                                       !- Design Zone Secondary Recirculation Fraction {dimensionless}
  ,                                       !- Design Minimum Zone Ventilation Efficiency {dimensionless}
  Coincident;                             !- Sizing Option

OS:ZoneHVAC:EquipmentList,
  {dd35ed4a-7899-4448-99dc-bbdbe41e59e7}, !- Handle
  Zone HVAC Equipment List 2,             !- Name
  {bccae81b-ab6e-4972-b1a5-d3756e861ae1}; !- Thermal Zone

OS:AdditionalProperties,
  {c4d1f32d-97fd-40d4-a455-aeed49353b28}, !- Handle
  {bccae81b-ab6e-4972-b1a5-d3756e861ae1}, !- Object Name
  ObjectType,                             !- Feature Name 1
  String,                                 !- Feature Data Type 1
  attic - vented;                         !- Feature Value 1

OS:Space,
  {2cd65022-3083-45e1-abb4-50038fede671}, !- Handle
  attic - vented 1,                       !- Name
  ,                                       !- Space Type Name
  ,                                       !- Default Construction Set Name
  ,                                       !- Default Schedule Set Name
  ,                                       !- Direction of Relative North {deg}
  ,                                       !- X Origin {m}
  ,                                       !- Y Origin {m}
  ,                                       !- Z Origin {m}
  ,                                       !- Building Story Name
  {bccae81b-ab6e-4972-b1a5-d3756e861ae1}, !- Thermal Zone Name
  ,                                       !- Part of Total Floor Area
  ,                                       !- Design Specification Outdoor Air Object Name
  ,                                       !- Building Unit Name
  356.390921899745;                       !- Volume {m3}

OS:Material,
  {001b5a34-497b-442c-ab70-2d18df27de39}, !- Handle
  asphalt or fiberglass shingles,         !- Name