
OS:Version,
  {72dc3811-58a7-49fb-bc63-481b6c8d56e1}, !- Handle
  3.9.0;                                  !- Version Identifier

OS:SimulationControl,
  {439cb624-f016-455d-96d3-3b6513627212}, !- Handle
  ,                                       !- Do Zone Sizing Calculation
  ,                                       !- Do System Sizing Calculation
  ,                                       !- Do Plant Sizing Calculation
  No;                                     !- Run Simulation for Sizing Periods

OS:Timestep,
  {f2ac042f-a63f-4be9-88c2-eb742cc7f176}, !- Handle
  1;                                      !- Number of Timesteps per Hour

OS:ShadowCalculation,
  {fb56fa30-e058-4027-b637-fd91d9f3f7b2}, !- Handle
  PolygonClipping,                        !- Shading Calculation Method
  ,                                       !- Shading Calculation Update Frequency Method
  20,                                     !- Shading Calculation Update Frequency
  200,                                    !- Maximum Figures in Shadow Overlap Calculations
  ,                                       !- Polygon Clipping Algorithm
  512,                                    !- Pixel Counting Resolution
  ,                                       !- Sky Diffuse Modeling Algorithm
  No,                                     !- Output External Shading Calculation Results
  No,                                     !- Disable Self-Shading Within Shading Zone Groups
  No;                                     !- Disable Self-Shading From Shading Zone Groups to Other Zones

OS:SurfaceConvectionAlgorithm:Outside,
  {9a3423bf-1257-4b7b-a924-9a9c7816af49}, !- Handle
  DOE-2;                                  !- Algorithm

OS:SurfaceConvectionAlgorithm:Inside,
  {f82abcb5-1c07-4d87-b628-a5595cdab734}, !- Handle
  TARP;                                   !- Algorithm

OS:ZoneCapacitanceMultiplier:ResearchSpecial,
  {c5231d77-d8c0-4a78-9e6f-28e5eb826f7a}, !- Handle
  7,                                      !- Temperature Capacity Multiplier
  15,                                     !- Humidity Capacity Multiplier
  ;                                       !- Carbon Dioxide Capacity Multiplier

OS:ConvergenceLimits,
  {9c24e9a3-723a-4fd8-9e9b-01c96558a54a}, !- Handle
  0;                                      !- Minimum System Timestep {minutes}

OS:RunPeriod,
  {ab6a74a3-4566-4302-bf32-db4c5e5850d2}, !- Handle
  Run Period 1,                           !- Name
  1,                                      !- Begin Month
  1,                                      !- Begin Day of Month
  12,                                     !- End Month
  31,                                     !- End Day of Month
  ,                                       !- Use Weather File Holidays and Special Days
  ,                                       !- Use Weather File Daylight Saving Period
  ,                                       !- Apply Weekend Holiday Rule
  ,                                       !- Use Weather File Rain Indicators
  ,                                       !- Use Weather File Snow Indicators
  ;                                       !- Number of Times Runperiod to be Repeated

OS:PerformancePrecisionTradeoffs,
  {a25baf50-8c9e-4ea6-8bd8-f11d131c60e5}, !- Handle
  ,                                       !- Use Coil Direct Solutions
  CarrollMRT;                             !- Zone Radiant Exchange Algorithm

OS:WeatherFile,
  {1da2ddc7-064f-42a5-9151-c70231797f90}, !- Handle
  Buffalo Niagara Intl Ap,                !- City
  NY,                                     !- State Province Region
  USA,                                    !- Country
  TMY3,                                   !- Data Source
  725280,                                 !- WMO Number
  42.93,                                  !- Latitude {deg}
  -78.73,                                 !- Longitude {deg}
  -5,                                     !- Time Zone {hr}
  215,                                    !- Elevation {m}
  /Users/nmoore/github/urbanopt-example-geojson-project/example_project/weather/USA_NY_Buffalo-Greater.Buffalo.Intl.AP.725280_TMY3.epw, !- Url
  6B50E0FF,                               !- Checksum
  ,                                       !- Start Date Actual Year
  Sunday;                                 !- Start Day of Week

OS:YearDescription,
  {9e1925c7-7ea2-4605-8d79-5515ba4fc393}, !- Handle
  2007,                                   !- Calendar Year
  ,                                       !- Day of Week for Start Day
  ;                                       !- Is Leap Year

OS:Site,
  {f78ed0df-b411-4230-8ffc-ce4106cdd966}, !- Handle
  Buffalo Niagara Intl Ap_NY,             !- Name
  42.93,                                  !- Latitude {deg}
  -78.73,                                 !- Longitude {deg}
  -5,                                     !- Time Zone {hr}
  215,                                    !- Elevation {m}
  Suburbs,                                !- Terrain
  Yes;                                    !- Keep Site Location Information

OS:RunPeriodControl:DaylightSavingTime,
  {048a0db4-ed97-4b2e-9597-27ca01115185}, !- Handle
  Mar 12,                                 !- Start Date
  Nov 5;                                  !- End Date

OS:Site:GroundTemperature:Shallow,
  {8a075890-ad2b-441a-a399-c832006e8213}, !- Handle
  4.30207395723828,                       !- January Surface Ground Temperature {C}
  2.29327249652502,                       !- February Surface Ground Temperature {C}
  2.13240047156047,                       !- March Surface Ground Temperature {C}
  3.08567940719286,                       !- April Surface Ground Temperature {C}
  6.91256312497526,                       !- May Surface Ground Temperature {C}
  10.7216195949507,                       !- June Surface Ground Temperature {C}
  14.0238679822574,                       !- July Surface Ground Temperature {C}
  16.1157611184724,                       !- August Surface Ground Temperature {C}
  16.2934789303462,                       !- September Surface Ground Temperature {C}
  14.5920754632847,                       !- October Surface Ground Temperature {C}
  11.374036348653,                        !- November Surface Ground Temperature {C}
  7.68182621661674;                       !- December Surface Ground Temperature {C}

OS:ThermalZone,
  {942d3254-589f-4f50-ab6c-c6f7c7e01c88}, !- Handle
  conditioned space,                      !- Name
  1,                                      !- Multiplier
  ,                                       !- Ceiling Height {m}
  692.06373070848,                        !- Volume {m3}
  ,                                       !- Floor Area {m2}
  ,                                       !- Zone Inside Convection Algorithm
  ,                                       !- Zone Outside Convection Algorithm
  ,                                       !- Zone Conditioning Equipment List Name
  {e9d77d0c-c5ec-466b-bca0-8afe56571100}, !- Zone Air Inlet Port List
  {3f2e2f91-2142-40d7-abea-acaafe4cac1f}, !- Zone Air Exhaust Port List
  {f399b5c9-188e-489f-ab58-3e91f2a2d46e}, !- Zone Air Node Name
  {e60a5b96-7080-406b-8e99-19778e49622a}, !- Zone Return Air Port List
  ,                                       !- Primary Daylighting Control Name
  ,                                       !- Fraction of Zone Controlled by Primary Daylighting Control
  ,                                       !- Secondary Daylighting Control Name
  ,                                       !- Fraction of Zone Controlled by Secondary Daylighting Control
  ,                                       !- Illuminance Map Name
  ,                                       !- Group Rendering Name
  {e81a8c7e-2817-4f46-b1be-360156ebc91b}, !- Thermostat Name
  No;                                     !- Use Ideal Air Loads

OS:Node,
  {b439bf8f-471b-4724-be7e-edc88973bd6a}, !- Handle
  Node 1,                                 !- Name
  {f399b5c9-188e-489f-ab58-3e91f2a2d46e}, !- Inlet Port
  ;                                       !- Outlet Port

OS:Connection,
  {f399b5c9-188e-489f-ab58-3e91f2a2d46e}, !- Handle
  {942d3254-589f-4f50-ab6c-c6f7c7e01c88}, !- Source Object
  11,                                     !- Outlet Port
  {b439bf8f-471b-4724-be7e-edc88973bd6a}, !- Target Object
  2;                                      !- Inlet Port

OS:PortList,
  {e9d77d0c-c5ec-466b-bca0-8afe56571100}, !- Handle
  {942d3254-589f-4f50-ab6c-c6f7c7e01c88}, !- HVAC Component
  {3b0aa2d4-c482-4d53-a8bb-b05957cc4012}; !- Port 1

OS:PortList,
  {3f2e2f91-2142-40d7-abea-acaafe4cac1f}, !- Handle
  {942d3254-589f-4f50-ab6c-c6f7c7e01c88}; !- HVAC Component

OS:PortList,
  {e60a5b96-7080-406b-8e99-19778e49622a}, !- Handle
  {942d3254-589f-4f50-ab6c-c6f7c7e01c88}, !- HVAC Component
  {23645922-8b61-4083-b4ae-07918eff7c0f}; !- Port 1

OS:Sizing:Zone,
  {7624e4d0-e5f0-4d12-b530-e468724d5bf1}, !- Handle
  {942d3254-589f-4f50-ab6c-c6f7c7e01c88}, !- Zone or ZoneList Name
  SupplyAirTemperature,                   !- Zone Cooling Design Supply Air Temperature Input Method
  14,                                     !- Zone Cooling Design Supply Air Temperature {C}
  11.11,                                  !- Zone Cooling Design Supply Air Temperature Difference {deltaC}
  SupplyAirTemperature,                   !- Zone Heating Design Supply Air Temperature Input Method
  40,                                     !- Zone Heating Design Supply Air Temperature {C}
  11.11,                                  !- Zone Heating Design Supply Air Temperature Difference {deltaC}
  0.0085,                                 !- Zone Cooling Design Supply Air Humidity Ratio {kg-H2O/kg-air}
  0.008,                                  !- Zone Heating Design Supply Air Humidity Ratio {kg-H2O/kg-air}
  ,                                       !- Zone Heating Sizing Factor
  ,                                       !- Zone Cooling Sizing Factor
  DesignDay,                              !- Cooling Design Air Flow Method
  ,                                       !- Cooling Design Air Flow Rate {m3/s}
  ,                                       !- Cooling Minimum Air Flow per Zone Floor Area {m3/s-m2}
  ,                                       !- Cooling Minimum Air Flow {m3/s}
  ,                                       !- Cooling Minimum Air Flow Fraction
  DesignDay,                              !- Heating Design Air Flow Method
  ,                                       !- Heating Design Air Flow Rate {m3/s}
  ,                                       !- Heating Maximum Air Flow per Zone Floor Area {m3/s-m2}
  ,                                       !- Heating Maximum Air Flow {m3/s}
  ,                                       !- Heating Maximum Air Flow Fraction
  No,                                     !- Account for Dedicated Outdoor Air System
  NeutralSupplyAir,                       !- Dedicated Outdoor Air System Control Strategy
  autosize,                               !- Dedicated Outdoor Air Low Setpoint Temperature for Design {C}
  autosize,                               !- Dedicated Outdoor Air High Setpoint Temperature for Design {C}
  Sensible Load Only No Latent Load,      !- Zone Load Sizing Method
  HumidityRatioDifference,                !- Zone Latent Cooling Design Supply Air Humidity Ratio Input Method
  ,                                       !- Zone Dehumidification Design Supply Air Humidity Ratio {kgWater/kgDryAir}
  0.005,                                  !- Zone Cooling Design Supply Air Humidity Ratio Difference {kgWater/kgDryAir}
  HumidityRatioDifference,                !- Zone Latent Heating Design Supply Air Humidity Ratio Input Method
  ,                                       !- Zone Humidification Design Supply Air Humidity Ratio {kgWater/kgDryAir}
  0.005,                                  !- Zone Humidification Design Supply Air Humidity Ratio Difference {kgWater/kgDryAir}
  ,                                       !- Zone Humidistat Dehumidification Set Point Schedule Name
  ,                                       !- Zone Humidistat Humidification Set Point Schedule Name
  ,                                       !- Design Zone Air Distribution Effectiveness in Cooling Mode
  ,                                       !- Design Zone Air Distribution Effectiveness in Heating Mode
  ,                                       !- Design Zone Secondary Recirculation Fraction {dimensionless}
  ,                                       !- Design Minimum Zone Ventilation Efficiency {dimensionless}
  Coincident;                             !- Sizing Option

OS:ZoneHVAC:EquipmentList,
  {d2e19a55-3790-42b4-afad-160ae821e9ee}, !- Handle
  Zone HVAC Equipment List 1,             !- Name
  {942d3254-589f-4f50-ab6c-c6f7c7e01c88}, !- Thermal Zone
  ,                                       !- Load Distribution Scheme
  {8b32077b-8d1d-441a-9f92-2071465b7543}, !- Zone Equipment 1
  1,                                      !- Zone Equipment Cooling Sequence 1
  1,                                      !- Zone Equipment Heating or No-Load Sequence 1
  {dd0441de-5607-425c-b5f9-01333ad100e3}, !- Zone Equipment Sequential Cooling Fraction Schedule Name 1
  {1716e206-7c7d-4f30-b705-41116898357f}, !- Zone Equipment Sequential Heating Fraction Schedule Name 1
  {8590e674-5d67-45c9-be1f-cc67957a254d}, !- Zone Equipment 2
  2,                                      !- Zone Equipment Cooling Sequence 2
  2,                                      !- Zone Equipment Heating or No-Load Sequence 2
  {67c15463-3ddf-4b74-bd11-f093995f57b0}, !- Zone Equipment Sequential Cooling Fraction Schedule Name 2
  {622f2625-7af8-4fbe-b455-38526fe261b9}; !- Zone Equipment Sequential Heating Fraction Schedule Name 2

OS:AdditionalProperties,
  {8fdc250a-05af-4381-a9aa-66a2da7cc11e}, !- Handle
  {942d3254-589f-4f50-ab6c-c6f7c7e01c88}, !- Object Name
  ObjectType,                             !- Feature Name 1
  String,                                 !- Feature Data Type 1
  conditioned space;                      !- Feature Value 1

OS:Space,
  {f0cd2346-8f07-4de0-b626-2429ad92b93d}, !- Handle
  conditioned space 1,                    !- Name
  ,                                       !- Space Type Name
  ,                                       !- Default Construction Set Name
  ,                                       !- Default Schedule Set Name
  ,                                       !- Direction of Relative North {deg}
  ,                                       !- X Origin {m}
  ,                                       !- Y Origin {m}
  ,                                       !- Z Origin {m}
  ,                                       !- Building Story Name
  {942d3254-589f-4f50-ab6c-c6f7c7e01c88}, !- Thermal Zone Name
  ,                                       !- Part of Total Floor Area
  ,                                       !- Design Specification Outdoor Air Object Name
  ,                                       !- Building Unit Name
  692.06373070848;                        !- Volume {m3}

OS:Schedule:Ruleset,
  {92ee2e4a-8932-4e92-a969-87858c9e224b}, !- Handle
  heating setpoint,                       !- Name
  {b3b92d18-549f-48dd-9514-2dc0536e198e}, !- Schedule Type Limits Name
  {06d2ec76-a08d-40a7-b538-94ee84cadbef}; !- Default Day Schedule Name

OS:Schedule:Day,
  {06d2ec76-a08d-40a7-b538-94ee84cadbef}, !- Handle
  heating setpoint default day,           !- Name
  {b3b92d18-549f-48dd-9514-2dc0536e198e}, !- Schedule Type Limits Name
  ,                                       !- Interpolate to Timestep
  24,                                     !- Hour 1
  0,                                      !- Minute 1
  0;                                      !- Value Until Time 1

OS:Schedule:Rule,
  {1da13891-9e12-4db9-9500-b9c75cc179ed}, !- Handle
  heating setpoint allday rule,           !- Name
  {92ee2e4a-8932-4e92-a969-87858c9e224b}, !- Schedule Ruleset Name
  0,                                      !- Rule Order
  {94d99a21-2f29-4019-8a11-e1d8675e2686}, !- Day Schedule Name
  Yes,                                    !- Apply Sunday
  Yes,                                    !- Apply Monday
  Yes,                                    !- Apply Tuesday
  Yes,                                    !- Apply Wednesday
  Yes,                                    !- Apply Thursday
  Yes,                                    !- Apply Friday
  Yes,                                    !- Apply Saturday
  DateRange,                              !- Date Specification Type
  1,                                      !- Start Month
  1,                                      !- Start Day
  12,                                     !- End Month
  31;                                     !- End Day

OS:Schedule:Day,
  {94d99a21-2f29-4019-8a11-e1d8675e2686}, !- Handle
  heating setpoint day,                   !- Name
  {b3b92d18-549f-48dd-9514-2dc0536e198e}, !- Schedule Type Limits Name
  ,                                       !- Interpolate to Timestep
  24,                                     !- Hour 1
  0,                                      !- Minute 1
  20;                                     !- Value Until Time 1

OS:Schedule:Ruleset,
  {3cb034ff-8df7-4fba-98f8-39830ae38a4e}, !- Handle
  cooling setpoint,                       !- Name
  {b3b92d18-549f-48dd-9514-2dc0536e198e}, !- Schedule Type Limits Name
  {ef9bc816-0a5e-41c0-9eb9-047a4f4cb7fa}; !- Default Day Schedule Name

OS:Schedule:Day,
  {ef9bc816-0a5e-41c0-9eb9-047a4f4cb7fa}, !- Handle
  cooling setpoint default day,           !- Name
  {b3b92d18-549f-48dd-9514-2dc0536e198e}, !- Schedule Type Limits Name
  ,                                       !- Interpolate to Timestep
  24,                                     !- Hour 1
  0,                                      !- Minute 1
  0;                                      !- Value Until Time 1

OS:Schedule:Rule,
  {5b7d1100-3d52-4cd8-ba59-212afd6c2a16}, !- Handle
  cooling setpoint allday rule,           !- Name
  {3cb034ff-8df7-4fba-98f8-39830ae38a4e}, !- Schedule Ruleset Name
  0,                                      !- Rule Order
  {c75498c2-862e-4a33-82c5-a31a953d4ccd}, !- Day Schedule Name
  Yes,                                    !- Apply Sunday
  Yes,                                    !- Apply Monday
  Yes,                                    !- Apply Tuesday
  Yes,                                    !- Apply Wednesday
  Yes,                                    !- Apply Thursday
  Yes,                                    !- Apply Friday
  Yes,                                    !- Apply Saturday
  DateRange,                              !- Date Specification Type
  1,                                      !- Start Month
  1,                                      !- Start Day
  12,                                     !- End Month
  31;                                     !- End Day

OS:Schedule:Day,
  {c75498c2-862e-4a33-82c5-a31a953d4ccd}, !- Handle
  cooling setpoint day,                   !- Name
  {b3b92d18-549f-48dd-9514-2dc0536e198e}, !- Schedule Type Limits Name
  ,                                       !- Interpolate to Timestep
  24,                                     !- Hour 1
  0,                                      !- Minute 1
  25.5555555555556;                       !- Value Until Time 1

OS:ThermostatSetpoint:DualSetpoint,
  {e81a8c7e-2817-4f46-b1be-360156ebc91b}, !- Handle
  conditioned space temperature setpoint, !- Name
  {92ee2e4a-8932-4e92-a969-87858c9e224b}, !- Heating Setpoint Temperature Schedule Name
  {3cb034ff-8df7-4fba-98f8-39830ae38a4e}, !- Cooling Setpoint Temperature Schedule Name
  0;                                      !- Temperature Difference Between Cutout And Setpoint {deltaC}

OS:ScheduleTypeLimits,
  {b3b92d18-549f-48dd-9514-2dc0536e198e}, !- Handle
  Temperature,                            !- Name
  ,                                       !- Lower Limit Value
  ,                                       !- Upper Limit Value
  Continuous,                             !- Numeric Type
  Temperature;                            !- Unit Type

OS:Surface,
  {17f454d5-998d-4a5c-8335-a638581d3e6e}, !- Handle
  Roof1,                                  !- Name
  RoofCeiling,                            !- Surface Type
  {709613aa-b830-4d65-9cc8-cabf5e6aeaa1}, !- Construction Name
  {d06e752b-a772-4fc1-8a6d-bceb8dcfae8b}, !- Space Name
  Outdoors,                               !- Outside Boundary Condition
  ,                                       !- Outside Boundary Condition Object
  SunExposed,                             !- Sun Exposure
  WindExposed,                            !- Wind Exposure
  ,                                       !- View Factor to Ground
  ,                                       !- Number of Vertices
  -26.9347048849634, 58.0557891618865, 2.4384, !- X,Y,Z Vertex 1 {m}
  -26.9347048849634, 46.7895631136661, 8.0715130241102, !- X,Y,Z Vertex 2 {m}
  -14.3386812381136, 46.7895631136661, 8.0715130241102, !- X,Y,Z Vertex 3 {m}
  -14.3386812381136, 58.0557891618865, 2.4384; !- X,Y,Z Vertex 4 {m}

OS:AdditionalProperties,
  {c81e9ff9-ee1e-4a12-8e3d-44f50be4e7f4}, !- Handle
  {17f454d5-998d-4a5c-8335-a638581d3e6e}, !- Object Name
  Length,                                 !- Feature Name 1
  Double,                                 !- Feature Data Type 1
  41.325536899113608,                     !- Feature Value 1
  Width,                                  !- Feature Name 2
  Double,                                 !- Feature Data Type 2
  41.325536899113601,                     !- Feature Value 2
  Azimuth,                                !- Feature Name 3
  Integer,                                !- Feature Data Type 3
  0,                                      !- Feature Value 3
  Tilt,                                   !- Feature Name 4
  Double,                                 !- Feature Data Type 4
  0.5,                                    !- Feature Value 4
  SurfaceType,                            !- Feature Name 5
  String,                                 !- Feature Data Type 5
  Roof;                                   !- Feature Value 5

OS:ThermalZone,
  {e2f9eb13-6971-4e2b-b2eb-04c6fa64060e}, !- Handle
  attic - vented,                         !- Name
  1,                                      !- Multiplier
  ,                                       !- Ceiling Height {m}
  356.389957095237,                       !- Volume {m3}
  ,                                       !- Floor Area {m2}
  ,                                       !- Zone Inside Convection Algorithm
  ,                                       !- Zone Outside Convection Algorithm
  ,                                       !- Zone Conditioning Equipment List Name
  {637a0b60-867f-4aa4-8fca-d4b06abd9d74}, !- Zone Air Inlet Port List
  {f21abed3-8d9d-464f-9df2-5500dbdefd53}, !- Zone Air Exhaust Port List
  {18d14abe-d2db-47cd-9eb2-5738eae9cfb3}, !- Zone Air Node Name
  {a843c587-cf8a-449c-a559-8a4a095cf671}, !- Zone Return Air Port List
  ,                                       !- Primary Daylighting Control Name
  ,                                       !- Fraction of Zone Controlled by Primary Daylighting Control
  ,                                       !- Secondary Daylighting Control Name
  ,                                       !- Fraction of Zone Controlled by Secondary Daylighting Control
  ,                                       !- Illuminance Map Name
  ,                                       !- Group Rendering Name
  ,                                       !- Thermostat Name
  No;                                     !- Use Ideal Air Loads

OS:Node,
  {b901f89a-b3f6-414f-8693-a685de34416d}, !- Handle
  Node 2,                                 !- Name
  {18d14abe-d2db-47cd-9eb2-5738eae9cfb3}, !- Inlet Port
  ;                                       !- Outlet Port

OS:Connection,
  {18d14abe-d2db-47cd-9eb2-5738eae9cfb3}, !- Handle
  {e2f9eb13-6971-4e2b-b2eb-04c6fa64060e}, !- Source Object
  11,                                     !- Outlet Port
  {b901f89a-b3f6-414f-8693-a685de34416d}, !- Target Object
  2;                                      !- Inlet Port

OS:PortList,
  {637a0b60-867f-4aa4-8fca-d4b06abd9d74}, !- Handle
  {e2f9eb13-6971-4e2b-b2eb-04c6fa64060e}; !- HVAC Component

OS:PortList,
  {f21abed3-8d9d-464f-9df2-5500dbdefd53}, !- Handle
  {e2f9eb13-6971-4e2b-b2eb-04c6fa64060e}; !- HVAC Component

OS:PortList,
  {a843c587-cf8a-449c-a559-8a4a095cf671}, !- Handle
  {e2f9eb13-6971-4e2b-b2eb-04c6fa64060e}; !- HVAC Component

OS:Sizing:Zone,
  {a19c2c0e-4253-46f0-9003-703b88915d34}, !- Handle
  {e2f9eb13-6971-4e2b-b2eb-04c6fa64060e}, !- Zone or ZoneList Name
  SupplyAirTemperature,                   !- Zone Cooling Design Supply Air Temperature Input Method
  14,                                     !- Zone Cooling Design Supply Air Temperature {C}
  11.11,                                  !- Zone Cooling Design Supply Air Temperature Difference {deltaC}
  SupplyAirTemperature,                   !- Zone Heating Design Supply Air Temperature Input Method
  40,                                     !- Zone Heating Design Supply Air Temperature {C}
  11.11,                                  !- Zone Heating Design Supply Air Temperature Difference {deltaC}
  0.0085,                                 !- Zone Cooling Design Supply Air Humidity Ratio {kg-H2O/kg-air}
  0.008,                                  !- Zone Heating Design Supply Air Humidity Ratio {kg-H2O/kg-air}
  ,                                       !- Zone Heating Sizing Factor
  ,                                       !- Zone Cooling Sizing Factor
  DesignDay,                              !- Cooling Design Air Flow Method
  ,                                       !- Cooling Design Air Flow Rate {m3/s}
  ,                                       !- Cooling Minimum Air Flow per Zone Floor Area {m3/s-m2}
  ,                                       !- Cooling Minimum Air Flow {m3/s}
  ,                                       !- Cooling Minimum Air Flow Fraction
  DesignDay,                              !- Heating Design Air Flow Method
  ,                                       !- Heating Design Air Flow Rate {m3/s}
  ,                                       !- Heating Maximum Air Flow per Zone Floor Area {m3/s-m2}
  ,                                       !- Heating Maximum Air Flow {m3/s}
  ,                                       !- Heating Maximum Air Flow Fraction
  No,                                     !- Account for Dedicated Outdoor Air System
  NeutralSupplyAir,                       !- Dedicated Outdoor Air System Control Strategy
  autosize,                               !- Dedicated Outdoor Air Low Setpoint Temperature for Design {C}
  autosize,                               !- Dedicated Outdoor Air High Setpoint Temperature for Design {C}
  Sensible Load Only No Latent Load,      !- Zone Load Sizing Method
  HumidityRatioDifference,                !- Zone Latent Cooling Design Supply Air Humidity Ratio Input Method
  ,                                       !- Zone Dehumidification Design Supply Air Humidity Ratio {kgWater/kgDryAir}
  0.005,                                  !- Zone Cooling Design Supply Air Humidity Ratio Difference {kgWater/kgDryAir}
  HumidityRatioDifference,                !- Zone Latent Heating Design Supply Air Humidity Ratio Input Method
  ,                                       !- Zone Humidification Design Supply Air Humidity Ratio {kgWater/kgDryAir}
  0.005,                                  !- Zone Humidification Design Supply Air Humidity Ratio Difference {kgWater/kgDryAir}
  ,                                       !- Zone Humidistat Dehumidification Set Point Schedule Name
  ,                                       !- Zone Humidistat Humidification Set Point Schedule Name
  ,                                       !- Design Zone Air Distribution Effectiveness in Cooling Mode
  ,                                       !- Design Zone Air Distribution Effectiveness in Heating Mode
  ,                                       !- Design Zone Secondary Recirculation Fraction {dimensionless}
  ,                                       !- Design Minimum Zone Ventilation Efficiency {dimensionless}
  Coincident;                             !- Sizing Option

OS:ZoneHVAC:EquipmentList,
  {66956766-c1d5-4c4e-aa1c-22daa80b310c}, !- Handle
  Zone HVAC Equipment List 2,             !- Name
  {e2f9eb13-6971-4e2b-b2eb-04c6fa64060e}; !- Thermal Zone

OS:AdditionalProperties,
  {754c0ae1-a557-487a-886e-6e04307db1be}, !- Handle
  {e2f9eb13-6971-4e2b-b2eb-04c6fa64060e}, !- Object Name
  ObjectType,                             !- Feature Name 1
  String,                                 !- Feature Data Type 1
  attic - vented;                         !- Feature Value 1

OS:Space,
  {d06e752b-a772-4fc1-8a6d-bceb8dcfae8b}, !- Handle
  attic - vented 1,                       !- Name
  ,                                       !- Space Type Name
  ,                                       !- Default Construction Set Name
  ,                                       !- Default Schedule Set Name
  ,                                       !- Direction of Relative North {deg}
  ,                                       !- X Origin {m}
  ,                                       !- Y Origin {m}
  ,                                       !- Z Origin {m}
  ,                                       !- Building Story Name
  {e2f9eb13-6971-4e2b-b2eb-04c6fa64060e}, !- Thermal Zone Name
  ,                                       !- Part of Total Floor Area
  ,                                       !- Design Specification Outdoor Air Object Name
  ,                                       !- Building Unit Name
  356.389957095237;                       !- Volume {m3}

OS:Material,
  {4f973ec2-1f5b-4f62-9955-10dfce23053a}, !- Handle
  asphalt or fiberglass shingles,         !- Name