
OS:Version,
  {4ac039c1-f55d-447e-9000-9696e236ca8e}, !- Handle
  3.9.0;                                  !- Version Identifier

OS:SimulationControl,
  {2bc7c8e6-e6b1-477f-9f84-0b1012f1ec63}, !- Handle
  ,                                       !- Do Zone Sizing Calculation
  ,                                       !- Do System Sizing Calculation
  ,                                       !- Do Plant Sizing Calculation
  No;                                     !- Run Simulation for Sizing Periods

OS:Timestep,
  {1feeeb63-3602-4980-967b-ac9001e34a4d}, !- Handle
  1;                                      !- Number of Timesteps per Hour

OS:ShadowCalculation,
  {c8a1d4a9-1e8f-42f8-bd85-d1bafe0223e5}, !- Handle
  PolygonClipping,                        !- Shading Calculation Method
  ,                                       !- Shading Calculation Update Frequency Method
  20,                                     !- Shading Calculation Update Frequency
  200,                                    !- Maximum Figures in Shadow Overlap Calculations
  ,                                       !- Polygon Clipping Algorithm
  512,                                    !- Pixel Counting Resolution
  ,                                       !- Sky Diffuse Modeling Algorithm
  No,                                     !- Output External Shading Calculation Results
  No,                                     !- Disable Self-Shading Within Shading Zone Groups
  No;                                     !- Disable Self-Shading From Shading Zone Groups to Other Zones

OS:SurfaceConvectionAlgorithm:Outside,
  {eb497b32-21cc-4e6f-a156-c871bfc58308}, !- Handle
  DOE-2;                                  !- Algorithm

OS:SurfaceConvectionAlgorithm:Inside,
  {3711288a-d0d1-497e-8329-93ca25e5d7cb}, !- Handle
  TARP;                                   !- Algorithm

OS:ZoneCapacitanceMultiplier:ResearchSpecial,
  {23594643-9e30-4d04-a5ff-0e7b7635ff12}, !- Handle
  7,                                      !- Temperature Capacity Multiplier
  15,                                     !- Humidity Capacity Multiplier
  ;                                       !- Carbon Dioxide Capacity Multiplier

OS:ConvergenceLimits,
  {3e8abca4-4345-49b1-a446-1b70a6dd0699}, !- Handle
  0;                                      !- Minimum System Timestep {minutes}

OS:RunPeriod,
  {3d95b08e-b4ba-4dfd-b5e5-8b4aedfdbd2a}, !- Handle
  Run Period 1,                           !- Name
  1,                                      !- Begin Month
  1,                                      !- Begin Day of Month
  12,                                     !- End Month
  31,                                     !- End Day of Month
  ,                                       !- Use Weather File Holidays and Special Days
  ,                                       !- Use Weather File Daylight Saving Period
  ,                                       !- Apply Weekend Holiday Rule
  ,                                       !- Use Weather File Rain Indicators
  ,                                       !- Use Weather File Snow Indicators
  ;                                       !- Number of Times Runperiod to be Repeated

OS:PerformancePrecisionTradeoffs,
  {bd9d91e0-20fd-4764-8370-fdf0f6fead48}, !- Handle
  ,                                       !- Use Coil Direct Solutions
  CarrollMRT;                             !- Zone Radiant Exchange Algorithm

OS:WeatherFile,
  {114df50a-e291-4dc6-aafb-12452b35e1ab}, !- Handle
  Buffalo Niagara Intl Ap,                !- City
  NY,                                     !- State Province Region
  USA,                                    !- Country
  TMY3,                                   !- Data Source
  725280,                                 !- WMO Number
  42.93,                                  !- Latitude {deg}
  -78.73,                                 !- Longitude {deg}
  -5,                                     !- Time Zone {hr}
  215,                                    !- Elevation {m}
  /Users/nmoore/github/urbanopt-example-geojson-project/example_project/weather/USA_NY_Buffalo-Greater.Buffalo.Intl.AP.725280_TMY3.epw, !- Url
  6B50E0FF,                               !- Checksum
  ,                                       !- Start Date Actual Year
  Sunday;                                 !- Start Day of Week

OS:YearDescription,
  {7288af9b-38b3-4568-bbc3-80e1ca791292}, !- Handle
  2007,                                   !- Calendar Year
  ,                                       !- Day of Week for Start Day
  ;                                       !- Is Leap Year

OS:Site,
  {ff644454-9a48-46d1-8381-ae0d1152804c}, !- Handle
  Buffalo Niagara Intl Ap_NY,             !- Name
  42.93,                                  !- Latitude {deg}
  -78.73,                                 !- Longitude {deg}
  -5,                                     !- Time Zone {hr}
  215,                                    !- Elevation {m}
  Suburbs,                                !- Terrain
  Yes;                                    !- Keep Site Location Information

OS:RunPeriodControl:DaylightSavingTime,
  {cfcf8372-caf8-4794-9c35-ad9fd2af26c7}, !- Handle
  Mar 12,                                 !- Start Date
  Nov 5;                                  !- End Date

OS:Site:GroundTemperature:Shallow,
  {d295f30c-fb4d-4ba1-a694-1e7683fe8813}, !- Handle
  4.30207395723828,                       !- January Surface Ground Temperature {C}
  2.29327249652502,                       !- February Surface Ground Temperature {C}
  2.13240047156047,                       !- March Surface Ground Temperature {C}
  3.08567940719286,                       !- April Surface Ground Temperature {C}
  6.91256312497526,                       !- May Surface Ground Temperature {C}
  10.7216195949507,                       !- June Surface Ground Temperature {C}
  14.0238679822574,                       !- July Surface Ground Temperature {C}
  16.1157611184724,                       !- August Surface Ground Temperature {C}
  16.2934789303462,                       !- September Surface Ground Temperature {C}
  14.5920754632847,                       !- October Surface Ground Temperature {C}
  11.374036348653,                        !- November Surface Ground Temperature {C}
  7.68182621661674;                       !- December Surface Ground Temperature {C}

OS:ThermalZone,
  {73677f25-1ffa-47a2-8002-d06487d0e194}, !- Handle
  conditioned space,                      !- Name
  1,                                      !- Multiplier
  ,                                       !- Ceiling Height {m}
  692.06373070848,                        !- Volume {m3}
  ,                                       !- Floor Area {m2}
  ,                                       !- Zone Inside Convection Algorithm
  ,                                       !- Zone Outside Convection Algorithm
  ,                                       !- Zone Conditioning Equipment List Name
  {b34887be-53cc-41c6-885a-6b1ab9056842}, !- Zone Air Inlet Port List
  {dd8a6239-588e-4920-8d2e-fbdd4af717a8}, !- Zone Air Exhaust Port List
  {e74feb27-a2f1-45db-9f2e-d3e0008b1a43}, !- Zone Air Node Name
  {fa93c4a9-fbef-4e2c-b869-a0d0a0babef7}, !- Zone Return Air Port List
  ,                                       !- Primary Daylighting Control Name
  ,                                       !- Fraction of Zone Controlled by Primary Daylighting Control
  ,                                       !- Secondary Daylighting Control Name
  ,                                       !- Fraction of Zone Controlled by Secondary Daylighting Control
  ,                                       !- Illuminance Map Name
  ,                                       !- Group Rendering Name
  {de30a886-fb48-4214-985a-2bfa66c767d4}, !- Thermostat Name
  No;                                     !- Use Ideal Air Loads

OS:Node,
  {a3a3210b-b0f2-464b-8db4-825926c3f162}, !- Handle
  Node 1,                                 !- Name
  {e74feb27-a2f1-45db-9f2e-d3e0008b1a43}, !- Inlet Port
  ;                                       !- Outlet Port

OS:Connection,
  {e74feb27-a2f1-45db-9f2e-d3e0008b1a43}, !- Handle
  {73677f25-1ffa-47a2-8002-d06487d0e194}, !- Source Object
  11,                                     !- Outlet Port
  {a3a3210b-b0f2-464b-8db4-825926c3f162}, !- Target Object
  2;                                      !- Inlet Port

OS:PortList,
  {b34887be-53cc-41c6-885a-6b1ab9056842}, !- Handle
  {73677f25-1ffa-47a2-8002-d06487d0e194}; !- HVAC Component

OS:PortList,
  {dd8a6239-588e-4920-8d2e-fbdd4af717a8}, !- Handle
  {73677f25-1ffa-47a2-8002-d06487d0e194}; !- HVAC Component

OS:PortList,
  {fa93c4a9-fbef-4e2c-b869-a0d0a0babef7}, !- Handle
  {73677f25-1ffa-47a2-8002-d06487d0e194}; !- HVAC Component

OS:Sizing:Zone,
  {74519baa-7d13-4254-b9c2-ef629991ec67}, !- Handle
  {73677f25-1ffa-47a2-8002-d06487d0e194}, !- Zone or ZoneList Name
  SupplyAirTemperature,                   !- Zone Cooling Design Supply Air Temperature Input Method
  14,                                     !- Zone Cooling Design Supply Air Temperature {C}
  11.11,                                  !- Zone Cooling Design Supply Air Temperature Difference {deltaC}
  SupplyAirTemperature,                   !- Zone Heating Design Supply Air Temperature Input Method
  40,                                     !- Zone Heating Design Supply Air Temperature {C}
  11.11,                                  !- Zone Heating Design Supply Air Temperature Difference {deltaC}
  0.0085,                                 !- Zone Cooling Design Supply Air Humidity Ratio {kg-H2O/kg-air}
  0.008,                                  !- Zone Heating Design Supply Air Humidity Ratio {kg-H2O/kg-air}
  ,                                       !- Zone Heating Sizing Factor
  ,                                       !- Zone Cooling Sizing Factor
  DesignDay,                              !- Cooling Design Air Flow Method
  ,                                       !- Cooling Design Air Flow Rate {m3/s}
  ,                                       !- Cooling Minimum Air Flow per Zone Floor Area {m3/s-m2}
  ,                                       !- Cooling Minimum Air Flow {m3/s}
  ,                                       !- Cooling Minimum Air Flow Fraction
  DesignDay,                              !- Heating Design Air Flow Method
  ,                                       !- Heating Design Air Flow Rate {m3/s}
  ,                                       !- Heating Maximum Air Flow per Zone Floor Area {m3/s-m2}
  ,                                       !- Heating Maximum Air Flow {m3/s}
  ,                                       !- Heating Maximum Air Flow Fraction
  No,                                     !- Account for Dedicated Outdoor Air System
  NeutralSupplyAir,                       !- Dedicated Outdoor Air System Control Strategy
  autosize,                               !- Dedicated Outdoor Air Low Setpoint Temperature for Design {C}
  autosize,                               !- Dedicated Outdoor Air High Setpoint Temperature for Design {C}
  Sensible Load Only No Latent Load,      !- Zone Load Sizing Method
  HumidityRatioDifference,                !- Zone Latent Cooling Design Supply Air Humidity Ratio Input Method
  ,                                       !- Zone Dehumidification Design Supply Air Humidity Ratio {kgWater/kgDryAir}
  0.005,                                  !- Zone Cooling Design Supply Air Humidity Ratio Difference {kgWater/kgDryAir}
  HumidityRatioDifference,                !- Zone Latent Heating Design Supply Air Humidity Ratio Input Method
  ,                                       !- Zone Humidification Design Supply Air Humidity Ratio {kgWater/kgDryAir}
  0.005,                                  !- Zone Humidification Design Supply Air Humidity Ratio Difference {kgWater/kgDryAir}
  ,                                       !- Zone Humidistat Dehumidification Set Point Schedule Name
  ,                                       !- Zone Humidistat Humidification Set Point Schedule Name
  ,                                       !- Design Zone Air Distribution Effectiveness in Cooling Mode
  ,                                       !- Design Zone Air Distribution Effectiveness in Heating Mode
  ,                                       !- Design Zone Secondary Recirculation Fraction {dimensionless}
  ,                                       !- Design Minimum Zone Ventilation Efficiency {dimensionless}
  Coincident;                             !- Sizing Option

OS:ZoneHVAC:EquipmentList,
  {25b58964-6a67-4a85-a08f-7965a6d1a72b}, !- Handle
  Zone HVAC Equipment List 1,             !- Name
  {73677f25-1ffa-47a2-8002-d06487d0e194}, !- Thermal Zone
  ,                                       !- Load Distribution Scheme
  {28d143ac-a179-4438-9fa4-f7234c226f04}, !- Zone Equipment 1
  1,                                      !- Zone Equipment Cooling Sequence 1
  1,                                      !- Zone Equipment Heating or No-Load Sequence 1
  {b5b75d23-d9ac-48b8-ac9c-1d7015e7944b}, !- Zone Equipment Sequential Cooling Fraction Schedule Name 1
  {7eb32faa-c9c0-4268-8c47-d73492960b4b}; !- Zone Equipment Sequential Heating Fraction Schedule Name 1

OS:AdditionalProperties,
  {a8a374b5-caea-4c3c-b803-ef839c95b897}, !- Handle
  {73677f25-1ffa-47a2-8002-d06487d0e194}, !- Object Name
  ObjectType,                             !- Feature Name 1
  String,                                 !- Feature Data Type 1
  conditioned space;                      !- Feature Value 1

OS:Space,
  {2e9aafac-0f9e-4a21-b704-09d443b5c704}, !- Handle
  conditioned space 1,                    !- Name
  ,                                       !- Space Type Name
  ,                                       !- Default Construction Set Name
  ,                                       !- Default Schedule Set Name
  ,                                       !- Direction of Relative North {deg}
  ,                                       !- X Origin {m}
  ,                                       !- Y Origin {m}
  ,                                       !- Z Origin {m}
  ,                                       !- Building Story Name
  {73677f25-1ffa-47a2-8002-d06487d0e194}, !- Thermal Zone Name
  ,                                       !- Part of Total Floor Area
  ,                                       !- Design Specification Outdoor Air Object Name
  ,                                       !- Building Unit Name
  692.06373070848;                        !- Volume {m3}

OS:Schedule:Ruleset,
  {a54aa6d0-e0d7-48f9-9754-8813ad5db375}, !- Handle
  heating setpoint,                       !- Name
  {bd161ff0-ece5-41d8-8296-3330bece6e39}, !- Schedule Type Limits Name
  {07203e84-0b51-4c5c-8e61-0bdba9e125d8}; !- Default Day Schedule Name

OS:Schedule:Day,
  {07203e84-0b51-4c5c-8e61-0bdba9e125d8}, !- Handle
  heating setpoint default day,           !- Name
  {bd161ff0-ece5-41d8-8296-3330bece6e39}, !- Schedule Type Limits Name
  ,                                       !- Interpolate to Timestep
  24,                                     !- Hour 1
  0,                                      !- Minute 1
  0;                                      !- Value Until Time 1

OS:Schedule:Rule,
  {5825668d-4dfa-41c7-a2e4-8870aae5d561}, !- Handle
  heating setpoint allday rule,           !- Name
  {a54aa6d0-e0d7-48f9-9754-8813ad5db375}, !- Schedule Ruleset Name
  0,                                      !- Rule Order
  {c90140af-88b2-473e-80d2-b10ff65e7569}, !- Day Schedule Name
  Yes,                                    !- Apply Sunday
  Yes,                                    !- Apply Monday
  Yes,                                    !- Apply Tuesday
  Yes,                                    !- Apply Wednesday
  Yes,                                    !- Apply Thursday
  Yes,                                    !- Apply Friday
  Yes,                                    !- Apply Saturday
  DateRange,                              !- Date Specification Type
  1,                                      !- Start Month
  1,                                      !- Start Day
  12,                                     !- End Month
  31;                                     !- End Day

OS:Schedule:Day,
  {c90140af-88b2-473e-80d2-b10ff65e7569}, !- Handle
  heating setpoint day,                   !- Name
  {bd161ff0-ece5-41d8-8296-3330bece6e39}, !- Schedule Type Limits Name
  ,                                       !- Interpolate to Timestep
  24,                                     !- Hour 1
  0,                                      !- Minute 1
  20;                                     !- Value Until Time 1

OS:Schedule:Ruleset,
  {fcb8f5dd-4ea0-4057-aec2-9b9cc99eabb7}, !- Handle
  cooling setpoint,                       !- Name
  {bd161ff0-ece5-41d8-8296-3330bece6e39}, !- Schedule Type Limits Name
  {840c9062-a175-4f90-9291-761e078a43f1}; !- Default Day Schedule Name

OS:Schedule:Day,
  {840c9062-a175-4f90-9291-761e078a43f1}, !- Handle
  cooling setpoint default day,           !- Name
  {bd161ff0-ece5-41d8-8296-3330bece6e39}, !- Schedule Type Limits Name
  ,                                       !- Interpolate to Timestep
  24,                                     !- Hour 1
  0,                                      !- Minute 1
  0;                                      !- Value Until Time 1

OS:Schedule:Rule,
  {1373c937-371b-491d-bcc1-50e2fff20dc3}, !- Handle
  cooling setpoint allday rule,           !- Name
  {fcb8f5dd-4ea0-4057-aec2-9b9cc99eabb7}, !- Schedule Ruleset Name
  0,                                      !- Rule Order
  {4faa7d74-9924-40b4-bc7b-f04cb0e1920a}, !- Day Schedule Name
  Yes,                                    !- Apply Sunday
  Yes,                                    !- Apply Monday
  Yes,                                    !- Apply Tuesday
  Yes,                                    !- Apply Wednesday
  Yes,                                    !- Apply Thursday
  Yes,                                    !- Apply Friday
  Yes,                                    !- Apply Saturday
  DateRange,                              !- Date Specification Type
  1,                                      !- Start Month
  1,                                      !- Start Day
  12,                                     !- End Month
  31;                                     !- End Day

OS:Schedule:Day,
  {4faa7d74-9924-40b4-bc7b-f04cb0e1920a}, !- Handle
  cooling setpoint day,                   !- Name
  {bd161ff0-ece5-41d8-8296-3330bece6e39}, !- Schedule Type Limits Name
  ,                                       !- Interpolate to Timestep
  24,                                     !- Hour 1
  0,                                      !- Minute 1
  25.5555555555556;                       !- Value Until Time 1

OS:ThermostatSetpoint:DualSetpoint,
  {de30a886-fb48-4214-985a-2bfa66c767d4}, !- Handle
  conditioned space temperature setpoint, !- Name
  {a54aa6d0-e0d7-48f9-9754-8813ad5db375}, !- Heating Setpoint Temperature Schedule Name
  {fcb8f5dd-4ea0-4057-aec2-9b9cc99eabb7}, !- Cooling Setpoint Temperature Schedule Name
  0;                                      !- Temperature Difference Between Cutout And Setpoint {deltaC}

OS:ScheduleTypeLimits,
  {bd161ff0-ece5-41d8-8296-3330bece6e39}, !- Handle
  Temperature,                            !- Name
  ,                                       !- Lower Limit Value
  ,                                       !- Upper Limit Value
  Continuous,                             !- Numeric Type
  Temperature;                            !- Unit Type

OS:Surface,
  {0abf78f0-2b47-4188-ac00-18678cc43289}, !- Handle
  Roof1,                                  !- Name
  RoofCeiling,                            !- Surface Type
  {710816bb-69b8-411e-a4f9-a16a9bde989f}, !- Construction Name
  {280a975e-0e58-4a95-ac21-6ab68351c447}, !- Space Name
  Outdoors,                               !- Outside Boundary Condition
  ,                                       !- Outside Boundary Condition Object
  SunExposed,                             !- Sun Exposure
  WindExposed,                            !- Wind Exposure
  ,                                       !- View Factor to Ground
  ,                                       !- Number of Vertices
  -26.9347048849634, 58.0557891618865, 2.4384, !- X,Y,Z Vertex 1 {m}
  -26.9347048849634, 46.7895631136661, 8.0715130241102, !- X,Y,Z Vertex 2 {m}
  -14.3386812381136, 46.7895631136661, 8.0715130241102, !- X,Y,Z Vertex 3 {m}
  -14.3386812381136, 58.0557891618865, 2.4384; !- X,Y,Z Vertex 4 {m}

OS:AdditionalProperties,
  {7f2add5c-f477-4372-9bea-ba9cf65c900e}, !- Handle
  {0abf78f0-2b47-4188-ac00-18678cc43289}, !- Object Name
  Length,                                 !- Feature Name 1
  Double,                                 !- Feature Data Type 1
  41.325536899113608,                     !- Feature Value 1
  Width,                                  !- Feature Name 2
  Double,                                 !- Feature Data Type 2
  41.325536899113601,                     !- Feature Value 2
  Azimuth,                                !- Feature Name 3
  Integer,                                !- Feature Data Type 3
  0,                                      !- Feature Value 3
  Tilt,                                   !- Feature Name 4
  Double,                                 !- Feature Data Type 4
  0.5,                                    !- Feature Value 4
  SurfaceType,                            !- Feature Name 5
  String,                                 !- Feature Data Type 5
  Roof;                                   !- Feature Value 5

OS:ThermalZone,
  {ad85cb3f-0f1e-4474-8ee3-41187b5cb2c9}, !- Handle
  attic - vented,                         !- Name
  1,                                      !- Multiplier
  ,                                       !- Ceiling Height {m}
  356.389957095237,                       !- Volume {m3}
  ,                                       !- Floor Area {m2}
  ,                                       !- Zone Inside Convection Algorithm
  ,                                       !- Zone Outside Convection Algorithm
  ,                                       !- Zone Conditioning Equipment List Name
  {3984490a-467e-457e-947c-e00bcdc3f61c}, !- Zone Air Inlet Port List
  {e701b404-5698-4be6-88ca-84b60227333d}, !- Zone Air Exhaust Port List
  {0ae2bcc3-a79f-422d-a6bb-2825b9559596}, !- Zone Air Node Name
  {e533cb5a-91f0-4c50-a413-c303a38ec392}, !- Zone Return Air Port List
  ,                                       !- Primary Daylighting Control Name
  ,                                       !- Fraction of Zone Controlled by Primary Daylighting Control
  ,                                       !- Secondary Daylighting Control Name
  ,                                       !- Fraction of Zone Controlled by Secondary Daylighting Control
  ,                                       !- Illuminance Map Name
  ,                                       !- Group Rendering Name
  ,                                       !- Thermostat Name
  No;                                     !- Use Ideal Air Loads

OS:Node,
  {76416511-64bb-4561-acd8-aa0007873b46}, !- Handle
  Node 2,                                 !- Name
  {0ae2bcc3-a79f-422d-a6bb-2825b9559596}, !- Inlet Port
  ;                                       !- Outlet Port

OS:Connection,
  {0ae2bcc3-a79f-422d-a6bb-2825b9559596}, !- Handle
  {ad85cb3f-0f1e-4474-8ee3-41187b5cb2c9}, !- Source Object
  11,                                     !- Outlet Port
  {76416511-64bb-4561-acd8-aa0007873b46}, !- Target Object
  2;                                      !- Inlet Port

OS:PortList,
  {3984490a-467e-457e-947c-e00bcdc3f61c}, !- Handle
  {ad85cb3f-0f1e-4474-8ee3-41187b5cb2c9}; !- HVAC Component

OS:PortList,
  {e701b404-5698-4be6-88ca-84b60227333d}, !- Handle
  {ad85cb3f-0f1e-4474-8ee3-41187b5cb2c9}; !- HVAC Component

OS:PortList,
  {e533cb5a-91f0-4c50-a413-c303a38ec392}, !- Handle
  {ad85cb3f-0f1e-4474-8ee3-41187b5cb2c9}; !- HVAC Component

OS:Sizing:Zone,
  {6e09666a-fe30-469c-9711-8e64a7f7aa0e}, !- Handle
  {ad85cb3f-0f1e-4474-8ee3-41187b5cb2c9}, !- Zone or ZoneList Name
  SupplyAirTemperature,                   !- Zone Cooling Design Supply Air Temperature Input Method
  14,                                     !- Zone Cooling Design Supply Air Temperature {C}
  11.11,                                  !- Zone Cooling Design Supply Air Temperature Difference {deltaC}
  SupplyAirTemperature,                   !- Zone Heating Design Supply Air Temperature Input Method
  40,                                     !- Zone Heating Design Supply Air Temperature {C}
  11.11,                                  !- Zone Heating Design Supply Air Temperature Difference {deltaC}
  0.0085,                                 !- Zone Cooling Design Supply Air Humidity Ratio {kg-H2O/kg-air}
  0.008,                                  !- Zone Heating Design Supply Air Humidity Ratio {kg-H2O/kg-air}
  ,                                       !- Zone Heating Sizing Factor
  ,                                       !- Zone Cooling Sizing Factor
  DesignDay,                              !- Cooling Design Air Flow Method
  ,                                       !- Cooling Design Air Flow Rate {m3/s}
  ,                                       !- Cooling Minimum Air Flow per Zone Floor Area {m3/s-m2}
  ,                                       !- Cooling Minimum Air Flow {m3/s}
  ,                                       !- Cooling Minimum Air Flow Fraction
  DesignDay,                              !- Heating Design Air Flow Method
  ,                                       !- Heating Design Air Flow Rate {m3/s}
  ,                                       !- Heating Maximum Air Flow per Zone Floor Area {m3/s-m2}
  ,                                       !- Heating Maximum Air Flow {m3/s}
  ,                                       !- Heating Maximum Air Flow Fraction
  No,                                     !- Account for Dedicated Outdoor Air System
  NeutralSupplyAir,                       !- Dedicated Outdoor Air System Control Strategy
  autosize,                               !- Dedicated Outdoor Air Low Setpoint Temperature for Design {C}
  autosize,                               !- Dedicated Outdoor Air High Setpoint Temperature for Design {C}
  Sensible Load Only No Latent Load,      !- Zone Load Sizing Method
  HumidityRatioDifference,                !- Zone Latent Cooling Design Supply Air Humidity Ratio Input Method
  ,                                       !- Zone Dehumidification Design Supply Air Humidity Ratio {kgWater/kgDryAir}
  0.005,                                  !- Zone Cooling Design Supply Air Humidity Ratio Difference {kgWater/kgDryAir}
  HumidityRatioDifference,                !- Zone Latent Heating Design Supply Air Humidity Ratio Input Method
  ,                                       !- Zone Humidification Design Supply Air Humidity Ratio {kgWater/kgDryAir}
  0.005,                                  !- Zone Humidification Design Supply Air Humidity Ratio Difference {kgWater/kgDryAir}
  ,                                       !- Zone Humidistat Dehumidification Set Point Schedule Name
  ,                                       !- Zone Humidistat Humidification Set Point Schedule Name
  ,                                       !- Design Zone Air Distribution Effectiveness in Cooling Mode
  ,                                       !- Design Zone Air Distribution Effectiveness in Heating Mode
  ,                                       !- Design Zone Secondary Recirculation Fraction {dimensionless}
  ,                                       !- Design Minimum Zone Ventilation Efficiency {dimensionless}
  Coincident;                             !- Sizing Option

OS:ZoneHVAC:EquipmentList,
  {2016cfad-157a-4f6a-a4b3-2252482505d9}, !- Handle
  Zone HVAC Equipment List 2,             !- Name
  {ad85cb3f-0f1e-4474-8ee3-41187b5cb2c9}; !- Thermal Zone

OS:AdditionalProperties,
  {4c93298c-e211-4eba-92ce-a52e6d2b7ac6}, !- Handle
  {ad85cb3f-0f1e-4474-8ee3-41187b5cb2c9}, !- Object Name
  ObjectType,                             !- Feature Name 1
  String,                                 !- Feature Data Type 1
  attic - vented;                         !- Feature Value 1

OS:Space,
  {280a975e-0e58-4a95-ac21-6ab68351c447}, !- Handle
  attic - vented 1,                       !- Name
  ,                                       !- Space Type Name
  ,                                       !- Default Construction Set Name
  ,                                       !- Default Schedule Set Name
  ,                                       !- Direction of Relative North {deg}
  ,                                       !- X Origin {m}
  ,                                       !- Y Origin {m}
  ,                                       !- Z Origin {m}
  ,                                       !- Building Story Name
  {ad85cb3f-0f1e-4474-8ee3-41187b5cb2c9}, !- Thermal Zone Name
  ,                                       !- Part of Total Floor Area
  ,                                       !- Design Specification Outdoor Air Object Name
  ,                                       !- Building Unit Name
  356.389957095237;                       !- Volume {m3}

OS:Material,
  {f4e1a202-9a9a-44b3-8566-afc71ca34461}, !- Handle
  asphalt or fiberglass shingles,         !- Name
  Rough,                                  !- Roughness
  0.00635,                                !- Thickness {m}
  0.162714,                               !- Conductivity {W/m-K}
  1121.4,                                 !- Density {kg/m3}
  1465.45,                                !- Specific Heat {J/kg-K}
  0.9,                                    !- Thermal Absorptance
  0.85,                                   !- Solar Absorptance
  0.85;                                   !- Visible Absorptance

OS:Material,
  {9da07895-f650-4ce5-bcd0-99ef3e365d33}, !- Handle