
OS:Version,
  {f6b0c07a-bba0-40b4-8408-a18da85ff817}, !- Handle
  3.10.0;                                 !- Version Identifier

OS:SimulationControl,
  {35f652ab-f70a-495c-bfde-2e043d496f09}, !- Handle
  ,                                       !- Do Zone Sizing Calculation
  ,                                       !- Do System Sizing Calculation
  ,                                       !- Do Plant Sizing Calculation
  No;                                     !- Run Simulation for Sizing Periods

OS:Timestep,
  {c1643ab9-57e5-4f07-b67e-8c2e7dc3ab13}, !- Handle
  1;                                      !- Number of Timesteps per Hour

OS:ShadowCalculation,
  {84a0039f-216c-4ec9-ae47-855d42b30842}, !- Handle
  PolygonClipping,                        !- Shading Calculation Method
  ,                                       !- Shading Calculation Update Frequency Method
  20,                                     !- Shading Calculation Update Frequency
  200,                                    !- Maximum Figures in Shadow Overlap Calculations
  ,                                       !- Polygon Clipping Algorithm
  512,                                    !- Pixel Counting Resolution
  ,                                       !- Sky Diffuse Modeling Algorithm
  No,                                     !- Output External Shading Calculation Results
  No,                                     !- Disable Self-Shading Within Shading Zone Groups
  No;                                     !- Disable Self-Shading From Shading Zone Groups to Other Zones

OS:SurfaceConvectionAlgorithm:Outside,
  {d41d8c2b-f54c-4f44-ab9d-ed4ab11803fc}, !- Handle
  DOE-2;                                  !- Algorithm

OS:SurfaceConvectionAlgorithm:Inside,
  {c190f1e2-4400-4aec-a766-6f6d38c8db03}, !- Handle
  TARP;                                   !- Algorithm

OS:ZoneCapacitanceMultiplier:ResearchSpecial,
  {9da941b2-c201-4255-8eff-8f7a3925f9a3}, !- Handle
  7,                                      !- Temperature Capacity Multiplier
  15,                                     !- Humidity Capacity Multiplier
  ;                                       !- Carbon Dioxide Capacity Multiplier

OS:ConvergenceLimits,
  {a5b16d4a-6b6d-41aa-b2e9-aa3928356576}, !- Handle
  0;                                      !- Minimum System Timestep {minutes}

OS:RunPeriod,
  {e319cb81-1ffe-41c1-9cf5-bf5c3b94358c}, !- Handle
  Run Period 1,                           !- Name
  1,                                      !- Begin Month
  1,                                      !- Begin Day of Month
  12,                                     !- End Month
  31,                                     !- End Day of Month
  ,                                       !- Use Weather File Holidays and Special Days
  ,                                       !- Use Weather File Daylight Saving Period
  ,                                       !- Apply Weekend Holiday Rule
  ,                                       !- Use Weather File Rain Indicators
  ,                                       !- Use Weather File Snow Indicators
  ;                                       !- Number of Times Runperiod to be Repeated

OS:PerformancePrecisionTradeoffs,
  {d13a3594-6e55-440d-9142-96ea54277c85}, !- Handle
  ,                                       !- Use Coil Direct Solutions
  CarrollMRT;                             !- Zone Radiant Exchange Algorithm

OS:WeatherFile,
  {416b0a09-730e-4fed-9431-495d5c9b62b0}, !- Handle
  Buffalo Niagara Intl Ap,                !- City
  NY,                                     !- State Province Region
  USA,                                    !- Country
  TMY3,                                   !- Data Source
  725280,                                 !- WMO Number
  42.93,                                  !- Latitude {deg}
  -78.73,                                 !- Longitude {deg}
  -5,                                     !- Time Zone {hr}
  215,                                    !- Elevation {m}
  /Users/nmoore/github/urbanopt-example-geojson-project/example_project/weather/USA_NY_Buffalo-Greater.Buffalo.Intl.AP.725280_TMY3.epw, !- Url
  6B50E0FF,                               !- Checksum
  ,                                       !- Start Date Actual Year
  Sunday;                                 !- Start Day of Week

OS:YearDescription,
  {5996a831-8485-4444-9882-07e389a62925}, !- Handle
  2007,                                   !- Calendar Year
  ,                                       !- Day of Week for Start Day
  ;                                       !- Is Leap Year

OS:Site,
  {2bc63497-340b-406b-ad8e-7a6dd928ef6b}, !- Handle
  Buffalo Niagara Intl Ap_NY,             !- Name
  42.93,                                  !- Latitude {deg}
  -78.73,                                 !- Longitude {deg}
  -5,                                     !- Time Zone {hr}
  215,                                    !- Elevation {m}
  Suburbs,                                !- Terrain
  Yes;                                    !- Keep Site Location Information

OS:RunPeriodControl:DaylightSavingTime,
  {4056084e-2507-4f05-98ff-9ef9fbea099b}, !- Handle
  Mar 12,                                 !- Start Date
  Nov 5;                                  !- End Date

OS:Site:GroundTemperature:Shallow,
  {18839ef7-36c1-45e7-add9-649dffe7db63}, !- Handle
  4.30207395723828,                       !- January Surface Ground Temperature {C}
  2.29327249652502,                       !- February Surface Ground Temperature {C}
  2.13240047156047,                       !- March Surface Ground Temperature {C}
  3.08567940719286,                       !- April Surface Ground Temperature {C}
  6.91256312497526,                       !- May Surface Ground Temperature {C}
  10.7216195949507,                       !- June Surface Ground Temperature {C}
  14.0238679822574,                       !- July Surface Ground Temperature {C}
  16.1157611184724,                       !- August Surface Ground Temperature {C}
  16.2934789303462,                       !- September Surface Ground Temperature {C}
  14.5920754632847,                       !- October Surface Ground Temperature {C}
  11.374036348653,                        !- November Surface Ground Temperature {C}
  7.68182621661674;                       !- December Surface Ground Temperature {C}

OS:ThermalZone,
  {ea4f63b6-ee92-4818-9420-af3acffb3d57}, !- Handle
  conditioned space,                      !- Name
  1,                                      !- Multiplier
  ,                                       !- Ceiling Height {m}
  692.06373070848,                        !- Volume {m3}
  ,                                       !- Floor Area {m2}
  ,                                       !- Zone Inside Convection Algorithm
  ,                                       !- Zone Outside Convection Algorithm
  ,                                       !- Zone Conditioning Equipment List Name
  {a9594568-3f28-404d-8541-98d01e069328}, !- Zone Air Inlet Port List
  {af22e064-f794-440b-a939-18291b71926d}, !- Zone Air Exhaust Port List
  {bbb2887b-6db3-456a-8383-e0afdfabbd13}, !- Zone Air Node Name
  {1123263a-f225-4a66-92d0-b7981ac9308e}, !- Zone Return Air Port List
  ,                                       !- Primary Daylighting Control Name
  ,                                       !- Fraction of Zone Controlled by Primary Daylighting Control
  ,                                       !- Secondary Daylighting Control Name
  ,                                       !- Fraction of Zone Controlled by Secondary Daylighting Control
  ,                                       !- Illuminance Map Name
  ,                                       !- Group Rendering Name
  {aebf926f-8a88-46c7-b666-5dd3264c940b}, !- Thermostat Name
  No;                                     !- Use Ideal Air Loads

OS:Node,
  {a97b8670-cc5b-49a4-86a7-a1cce6df4260}, !- Handle
  Node 1,                                 !- Name
  {bbb2887b-6db3-456a-8383-e0afdfabbd13}, !- Inlet Port
  ;                                       !- Outlet Port

OS:Connection,
  {bbb2887b-6db3-456a-8383-e0afdfabbd13}, !- Handle
  {ea4f63b6-ee92-4818-9420-af3acffb3d57}, !- Source Object
  11,                                     !- Outlet Port
  {a97b8670-cc5b-49a4-86a7-a1cce6df4260}, !- Target Object
  2;                                      !- Inlet Port

OS:PortList,
  {a9594568-3f28-404d-8541-98d01e069328}, !- Handle
  {ea4f63b6-ee92-4818-9420-af3acffb3d57}; !- HVAC Component

OS:PortList,
  {af22e064-f794-440b-a939-18291b71926d}, !- Handle
  {ea4f63b6-ee92-4818-9420-af3acffb3d57}; !- HVAC Component

OS:PortList,
  {1123263a-f225-4a66-92d0-b7981ac9308e}, !- Handle
  {ea4f63b6-ee92-4818-9420-af3acffb3d57}; !- HVAC Component

OS:Sizing:Zone,
  {fc831ff3-40a9-4207-a381-a9d166c989ed}, !- Handle
  {ea4f63b6-ee92-4818-9420-af3acffb3d57}, !- Zone or ZoneList Name
  SupplyAirTemperature,                   !- Zone Cooling Design Supply Air Temperature Input Method
  14,                                     !- Zone Cooling Design Supply Air Temperature {C}
  11.11,                                  !- Zone Cooling Design Supply Air Temperature Difference {deltaC}
  SupplyAirTemperature,                   !- Zone Heating Design Supply Air Temperature Input Method
  40,                                     !- Zone Heating Design Supply Air Temperature {C}
  11.11,                                  !- Zone Heating Design Supply Air Temperature Difference {deltaC}
  0.0085,                                 !- Zone Cooling Design Supply Air Humidity Ratio {kg-H2O/kg-air}
  0.008,                                  !- Zone Heating Design Supply Air Humidity Ratio {kg-H2O/kg-air}
  ,                                       !- Zone Heating Sizing Factor
  ,                                       !- Zone Cooling Sizing Factor
  DesignDay,                              !- Cooling Design Air Flow Method
  ,                                       !- Cooling Design Air Flow Rate {m3/s}
  ,                                       !- Cooling Minimum Air Flow per Zone Floor Area {m3/s-m2}
  ,                                       !- Cooling Minimum Air Flow {m3/s}
  ,                                       !- Cooling Minimum Air Flow Fraction
  DesignDay,                              !- Heating Design Air Flow Method
  ,                                       !- Heating Design Air Flow Rate {m3/s}
  ,                                       !- Heating Maximum Air Flow per Zone Floor Area {m3/s-m2}
  ,                                       !- Heating Maximum Air Flow {m3/s}
  ,                                       !- Heating Maximum Air Flow Fraction
  No,                                     !- Account for Dedicated Outdoor Air System
  NeutralSupplyAir,                       !- Dedicated Outdoor Air System Control Strategy
  autosize,                               !- Dedicated Outdoor Air Low Setpoint Temperature for Design {C}
  autosize,                               !- Dedicated Outdoor Air High Setpoint Temperature for Design {C}
  Sensible Load Only No Latent Load,      !- Zone Load Sizing Method
  HumidityRatioDifference,                !- Zone Latent Cooling Design Supply Air Humidity Ratio Input Method
  ,                                       !- Zone Dehumidification Design Supply Air Humidity Ratio {kgWater/kgDryAir}
  0.005,                                  !- Zone Cooling Design Supply Air Humidity Ratio Difference {kgWater/kgDryAir}
  HumidityRatioDifference,                !- Zone Latent Heating Design Supply Air Humidity Ratio Input Method
  ,                                       !- Zone Humidification Design Supply Air Humidity Ratio {kgWater/kgDryAir}
  0.005,                                  !- Zone Humidification Design Supply Air Humidity Ratio Difference {kgWater/kgDryAir}
  ,                                       !- Zone Humidistat Dehumidification Set Point Schedule Name
  ,                                       !- Zone Humidistat Humidification Set Point Schedule Name
  ,                                       !- Design Zone Air Distribution Effectiveness in Cooling Mode
  ,                                       !- Design Zone Air Distribution Effectiveness in Heating Mode
  ,                                       !- Design Zone Secondary Recirculation Fraction {dimensionless}
  ,                                       !- Design Minimum Zone Ventilation Efficiency {dimensionless}
  Coincident;                             !- Sizing Option

OS:ZoneHVAC:EquipmentList,
  {15926a0f-41d5-4c3b-a23c-34e930c8c062}, !- Handle
  Zone HVAC Equipment List 1,             !- Name
  {ea4f63b6-ee92-4818-9420-af3acffb3d57}, !- Thermal Zone
  ,                                       !- Load Distribution Scheme
  {6cf4f39e-230b-42df-aa9f-639a7bf6782c}, !- Zone Equipment 1
  1,                                      !- Zone Equipment Cooling Sequence 1
  1,                                      !- Zone Equipment Heating or No-Load Sequence 1
  {80ed4cf6-977b-4ae7-9c20-b8b666901141}, !- Zone Equipment Sequential Cooling Fraction Schedule Name 1
  {ea27f29a-069b-4fb6-87b9-f8df8b15802b}; !- Zone Equipment Sequential Heating Fraction Schedule Name 1

OS:AdditionalProperties,
  {b338a7c2-276a-4f57-9377-41df445a842c}, !- Handle
  {ea4f63b6-ee92-4818-9420-af3acffb3d57}, !- Object Name
  ObjectType,                             !- Feature Name 1
  String,                                 !- Feature Data Type 1
  conditioned space;                      !- Feature Value 1

OS:Space,
  {a4ac23b4-e7f6-44de-8500-1f25b8b3d53f}, !- Handle
  conditioned space 1,                    !- Name
  ,                                       !- Space Type Name
  ,                                       !- Default Construction Set Name
  ,                                       !- Default Schedule Set Name
  ,                                       !- Direction of Relative North {deg}
  ,                                       !- X Origin {m}
  ,                                       !- Y Origin {m}
  ,                                       !- Z Origin {m}
  ,                                       !- Building Story Name
  {ea4f63b6-ee92-4818-9420-af3acffb3d57}, !- Thermal Zone Name
  ,                                       !- Part of Total Floor Area
  ,                                       !- Design Specification Outdoor Air Object Name
  ,                                       !- Building Unit Name
  692.06373070848;                        !- Volume {m3}

OS:Schedule:Ruleset,
  {b9278fbf-e08d-4775-9c0b-530540e06604}, !- Handle
  heating setpoint,                       !- Name
  {d327585a-103d-49b3-a18d-2d78937e6de8}, !- Schedule Type Limits Name
  {909df717-3afe-49fd-bb9b-b5eeec9b102f}; !- Default Day Schedule Name

OS:Schedule:Day,
  {909df717-3afe-49fd-bb9b-b5eeec9b102f}, !- Handle
  heating setpoint default day,           !- Name
  {d327585a-103d-49b3-a18d-2d78937e6de8}, !- Schedule Type Limits Name
  ,                                       !- Interpolate to Timestep
  24,                                     !- Hour 1
  0,                                      !- Minute 1
  0;                                      !- Value Until Time 1

OS:Schedule:Rule,
  {4cb73855-9462-46cf-8287-dc4b78c4c1d0}, !- Handle
  heating setpoint allday rule,           !- Name
  {b9278fbf-e08d-4775-9c0b-530540e06604}, !- Schedule Ruleset Name
  0,                                      !- Rule Order
  {7ff4e971-7d8c-4389-b293-6bc09a381a8e}, !- Day Schedule Name
  Yes,                                    !- Apply Sunday
  Yes,                                    !- Apply Monday
  Yes,                                    !- Apply Tuesday
  Yes,                                    !- Apply Wednesday
  Yes,                                    !- Apply Thursday
  Yes,                                    !- Apply Friday
  Yes,                                    !- Apply Saturday
  DateRange,                              !- Date Specification Type
  1,                                      !- Start Month
  1,                                      !- Start Day
  12,                                     !- End Month
  31;                                     !- End Day

OS:Schedule:Day,
  {7ff4e971-7d8c-4389-b293-6bc09a381a8e}, !- Handle
  heating setpoint day,                   !- Name
  {d327585a-103d-49b3-a18d-2d78937e6de8}, !- Schedule Type Limits Name
  ,                                       !- Interpolate to Timestep
  24,                                     !- Hour 1
  0,                                      !- Minute 1
  20;                                     !- Value Until Time 1

OS:Schedule:Ruleset,
  {8672da27-65e0-4abe-be14-65a74a4603cd}, !- Handle
  cooling setpoint,                       !- Name
  {d327585a-103d-49b3-a18d-2d78937e6de8}, !- Schedule Type Limits Name
  {c34727d4-a140-4f72-a982-34041e4e2e39}; !- Default Day Schedule Name

OS:Schedule:Day,
  {c34727d4-a140-4f72-a982-34041e4e2e39}, !- Handle
  cooling setpoint default day,           !- Name
  {d327585a-103d-49b3-a18d-2d78937e6de8}, !- Schedule Type Limits Name
  ,                                       !- Interpolate to Timestep
  24,                                     !- Hour 1
  0,                                      !- Minute 1
  0;                                      !- Value Until Time 1

OS:Schedule:Rule,
  {3c349e12-653d-43c0-a9fa-81c2d634ecf3}, !- Handle
  cooling setpoint allday rule,           !- Name
  {8672da27-65e0-4abe-be14-65a74a4603cd}, !- Schedule Ruleset Name
  0,                                      !- Rule Order
  {d44273f2-0af3-4035-b8d7-0d5ebae78a24}, !- Day Schedule Name
  Yes,                                    !- Apply Sunday
  Yes,                                    !- Apply Monday
  Yes,                                    !- Apply Tuesday
  Yes,                                    !- Apply Wednesday
  Yes,                                    !- Apply Thursday
  Yes,                                    !- Apply Friday
  Yes,                                    !- Apply Saturday
  DateRange,                              !- Date Specification Type
  1,                                      !- Start Month
  1,                                      !- Start Day
  12,                                     !- End Month
  31;                                     !- End Day

OS:Schedule:Day,
  {d44273f2-0af3-4035-b8d7-0d5ebae78a24}, !- Handle
  cooling setpoint day,                   !- Name
  {d327585a-103d-49b3-a18d-2d78937e6de8}, !- Schedule Type Limits Name
  ,                                       !- Interpolate to Timestep
  24,                                     !- Hour 1
  0,                                      !- Minute 1
  25.5555555555556;                       !- Value Until Time 1

OS:ThermostatSetpoint:DualSetpoint,
  {aebf926f-8a88-46c7-b666-5dd3264c940b}, !- Handle
  conditioned space temperature setpoint, !- Name
  {b9278fbf-e08d-4775-9c0b-530540e06604}, !- Heating Setpoint Temperature Schedule Name
  {8672da27-65e0-4abe-be14-65a74a4603cd}, !- Cooling Setpoint Temperature Schedule Name
  0;                                      !- Temperature Difference Between Cutout And Setpoint {deltaC}

OS:ScheduleTypeLimits,
  {d327585a-103d-49b3-a18d-2d78937e6de8}, !- Handle
  Temperature,                            !- Name
  ,                                       !- Lower Limit Value
  ,                                       !- Upper Limit Value
  Continuous,                             !- Numeric Type
  Temperature;                            !- Unit Type

OS:Surface,
  {59c66b48-9a6b-4b8e-b8d5-bdb117aa8b78}, !- Handle
  Roof1,                                  !- Name
  RoofCeiling,                            !- Surface Type
  {ff0364d5-3b8c-4d9b-b36a-dbad3ac66ae9}, !- Construction Name
  {7afd1067-a6c4-4b21-897d-470c15e33947}, !- Space Name
  Outdoors,                               !- Outside Boundary Condition
  ,                                       !- Outside Boundary Condition Object
  SunExposed,                             !- Sun Exposure
  WindExposed,                            !- Wind Exposure
  ,                                       !- View Factor to Ground
  ,                                       !- Number of Vertices
  -26.9347048849634, 58.0557891618865, 2.4384, !- X,Y,Z Vertex 1 {m}
  -26.9347048849634, 46.7895631136661, 8.0715130241102, !- X,Y,Z Vertex 2 {m}
  -14.3386812381136, 46.7895631136661, 8.0715130241102, !- X,Y,Z Vertex 3 {m}
  -14.3386812381136, 58.0557891618865, 2.4384; !- X,Y,Z Vertex 4 {m}

OS:AdditionalProperties,
  {94afaee7-6b70-4a8b-abf6-571b3f5fa582}, !- Handle
  {59c66b48-9a6b-4b8e-b8d5-bdb117aa8b78}, !- Object Name
  Length,                                 !- Feature Name 1
  Double,                                 !- Feature Data Type 1
  41.325536899113608,                     !- Feature Value 1
  Width,                                  !- Feature Name 2
  Double,                                 !- Feature Data Type 2
  41.325536899113601,                     !- Feature Value 2
  Azimuth,                                !- Feature Name 3
  Integer,                                !- Feature Data Type 3
  0,                                      !- Feature Value 3
  Tilt,                                   !- Feature Name 4
  Double,                                 !- Feature Data Type 4
  0.5,                                    !- Feature Value 4
  SurfaceType,                            !- Feature Name 5
  String,                                 !- Feature Data Type 5
  Roof;                                   !- Feature Value 5

OS:ThermalZone,
  {95764543-a5cf-4f48-95a9-c7beed4f062c}, !- Handle
  attic - vented,                         !- Name
  1,                                      !- Multiplier
  ,                                       !- Ceiling Height {m}
  356.390921899745,                       !- Volume {m3}
  ,                                       !- Floor Area {m2}
  ,                                       !- Zone Inside Convection Algorithm
  ,                                       !- Zone Outside Convection Algorithm
  ,                                       !- Zone Conditioning Equipment List Name
  {24340da4-0dea-42a0-8ae8-622eabc6d852}, !- Zone Air Inlet Port List
  {1fa60765-6ad6-4f52-af1a-4c22fe1eff95}, !- Zone Air Exhaust Port List
  {75ef2ffc-232d-44f9-ba6d-5c50c6b6427d}, !- Zone Air Node Name
  {f0680624-08f6-43e9-8d12-d7af6e847722}, !- Zone Return Air Port List
  ,                                       !- Primary Daylighting Control Name
  ,                                       !- Fraction of Zone Controlled by Primary Daylighting Control
  ,                                       !- Secondary Daylighting Control Name
  ,                                       !- Fraction of Zone Controlled by Secondary Daylighting Control
  ,                                       !- Illuminance Map Name
  ,                                       !- Group Rendering Name
  ,                                       !- Thermostat Name
  No;                                     !- Use Ideal Air Loads

OS:Node,
  {c311d888-c2d7-49e4-83b3-dc0450ad29b2}, !- Handle
  Node 2,                                 !- Name
  {75ef2ffc-232d-44f9-ba6d-5c50c6b6427d}, !- Inlet Port
  ;                                       !- Outlet Port

OS:Connection,
  {75ef2ffc-232d-44f9-ba6d-5c50c6b6427d}, !- Handle
  {95764543-a5cf-4f48-95a9-c7beed4f062c}, !- Source Object
  11,                                     !- Outlet Port
  {c311d888-c2d7-49e4-83b3-dc0450ad29b2}, !- Target Object
  2;                                      !- Inlet Port

OS:PortList,
  {24340da4-0dea-42a0-8ae8-622eabc6d852}, !- Handle
  {95764543-a5cf-4f48-95a9-c7beed4f062c}; !- HVAC Component

OS:PortList,
  {1fa60765-6ad6-4f52-af1a-4c22fe1eff95}, !- Handle
  {95764543-a5cf-4f48-95a9-c7beed4f062c}; !- HVAC Component

OS:PortList,
  {f0680624-08f6-43e9-8d12-d7af6e847722}, !- Handle
  {95764543-a5cf-4f48-95a9-c7beed4f062c}; !- HVAC Component

OS:Sizing:Zone,
  {0af6bce3-1d28-46c9-80cf-6b9b906c95ed}, !- Handle
  {95764543-a5cf-4f48-95a9-c7beed4f062c}, !- Zone or ZoneList Name
  SupplyAirTemperature,                   !- Zone Cooling Design Supply Air Temperature Input Method
  14,                                     !- Zone Cooling Design Supply Air Temperature {C}
  11.11,                                  !- Zone Cooling Design Supply Air Temperature Difference {deltaC}
  SupplyAirTemperature,                   !- Zone Heating Design Supply Air Temperature Input Method
  40,                                     !- Zone Heating Design Supply Air Temperature {C}
  11.11,                                  !- Zone Heating Design Supply Air Temperature Difference {deltaC}
  0.0085,                                 !- Zone Cooling Design Supply Air Humidity Ratio {kg-H2O/kg-air}
  0.008,                                  !- Zone Heating Design Supply Air Humidity Ratio {kg-H2O/kg-air}
  ,                                       !- Zone Heating Sizing Factor
  ,                                       !- Zone Cooling Sizing Factor
  DesignDay,                              !- Cooling Design Air Flow Method
  ,                                       !- Cooling Design Air Flow Rate {m3/s}
  ,                                       !- Cooling Minimum Air Flow per Zone Floor Area {m3/s-m2}
  ,                                       !- Cooling Minimum Air Flow {m3/s}
  ,                                       !- Cooling Minimum Air Flow Fraction
  DesignDay,                              !- Heating Design Air Flow Method
  ,                                       !- Heating Design Air Flow Rate {m3/s}
  ,                                       !- Heating Maximum Air Flow per Zone Floor Area {m3/s-m2}
  ,                                       !- Heating Maximum Air Flow {m3/s}
  ,                                       !- Heating Maximum Air Flow Fraction
  No,                                     !- Account for Dedicated Outdoor Air System
  NeutralSupplyAir,                       !- Dedicated Outdoor Air System Control Strategy
  autosize,                               !- Dedicated Outdoor Air Low Setpoint Temperature for Design {C}
  autosize,                               !- Dedicated Outdoor Air High Setpoint Temperature for Design {C}
  Sensible Load Only No Latent Load,      !- Zone Load Sizing Method
  HumidityRatioDifference,                !- Zone Latent Cooling Design Supply Air Humidity Ratio Input Method
  ,                                       !- Zone Dehumidification Design Supply Air Humidity Ratio {kgWater/kgDryAir}
  0.005,                                  !- Zone Cooling Design Supply Air Humidity Ratio Difference {kgWater/kgDryAir}
  HumidityRatioDifference,                !- Zone Latent Heating Design Supply Air Humidity Ratio Input Method
  ,                                       !- Zone Humidification Design Supply Air Humidity Ratio {kgWater/kgDryAir}
  0.005,                                  !- Zone Humidification Design Supply Air Humidity Ratio Difference {kgWater/kgDryAir}
  ,                                       !- Zone Humidistat Dehumidification Set Point Schedule Name
  ,                                       !- Zone Humidistat Humidification Set Point Schedule Name
  ,                                       !- Design Zone Air Distribution Effectiveness in Cooling Mode
  ,                                       !- Design Zone Air Distribution Effectiveness in Heating Mode
  ,                                       !- Design Zone Secondary Recirculation Fraction {dimensionless}
  ,                                       !- Design Minimum Zone Ventilation Efficiency {dimensionless}
  Coincident;                             !- Sizing Option

OS:ZoneHVAC:EquipmentList,
  {12ab64a9-5d21-4c75-85e4-ca371a38dbb1}, !- Handle
  Zone HVAC Equipment List 2,             !- Name
  {95764543-a5cf-4f48-95a9-c7beed4f062c}; !- Thermal Zone

OS:AdditionalProperties,
  {80b17af4-177e-42f4-8cc8-189a611b78cc}, !- Handle
  {95764543-a5cf-4f48-95a9-c7beed4f062c}, !- Object Name
  ObjectType,                             !- Feature Name 1
  String,                                 !- Feature Data Type 1
  attic - vented;                         !- Feature Value 1

OS:Space,
  {7afd1067-a6c4-4b21-897d-470c15e33947}, !- Handle
  attic - vented 1,                       !- Name
  ,                                       !- Space Type Name
  ,                                       !- Default Construction Set Name
  ,                                       !- Default Schedule Set Name
  ,                                       !- Direction of Relative North {deg}
  ,                                       !- X Origin {m}
  ,                                       !- Y Origin {m}
  ,                                       !- Z Origin {m}
  ,                                       !- Building Story Name
  {95764543-a5cf-4f48-95a9-c7beed4f062c}, !- Thermal Zone Name
  ,                                       !- Part of Total Floor Area
  ,                                       !- Design Specification Outdoor Air Object Name
  ,                                       !- Building Unit Name
  356.390921899745;                       !- Volume {m3}

OS:Material,
  {87a8bbde-9705-4cb3-a8f4-3a0e6534abbc}, !- Handle
  asphalt or fiberglass shingles,         !- Name
  Rough,                                  !- Roughness
  0.00635,                                !- Thickness {m}
  0.162714,                               !- Conductivity {W/m-K}
  1121.4,                                 !- Density {kg/m3}
  1465.45,                                !- Specific Heat {J/kg-K}
  0.9,                                    !- Thermal Absorptance
  0.85,                                   !- Solar Absorptance
  0.85;                                   !- Visible Absorptance

OS:Material,
  {c57c4917-761e-4e82-86f9-81255460a3f9}, !- Handle