
OS:Version,
  {a5ec17cb-3551-4b79-9b39-879a99214abb}, !- Handle
  3.10.0;                                 !- Version Identifier

OS:SimulationControl,
  {8c3f5b77-eecc-41db-8170-19d259dfefad}, !- Handle
  ,                                       !- Do Zone Sizing Calculation
  ,                                       !- Do System Sizing Calculation
  ,                                       !- Do Plant Sizing Calculation
  No;                                     !- Run Simulation for Sizing Periods

OS:Timestep,
  {626705df-d736-42fa-91cc-2cae1c98ba10}, !- Handle
  1;                                      !- Number of Timesteps per Hour

OS:ShadowCalculation,
  {a5aeb56b-ff99-4cfb-a49c-4f5976ceb8bf}, !- Handle
  PolygonClipping,                        !- Shading Calculation Method
  ,                                       !- Shading Calculation Update Frequency Method
  20,                                     !- Shading Calculation Update Frequency
  200,                                    !- Maximum Figures in Shadow Overlap Calculations
  ,                                       !- Polygon Clipping Algorithm
  512,                                    !- Pixel Counting Resolution
  ,                                       !- Sky Diffuse Modeling Algorithm
  No,                                     !- Output External Shading Calculation Results
  No,                                     !- Disable Self-Shading Within Shading Zone Groups
  No;                                     !- Disable Self-Shading From Shading Zone Groups to Other Zones

OS:SurfaceConvectionAlgorithm:Outside,
  {1892f560-77a7-4e0c-855e-e8abe4349320}, !- Handle
  DOE-2;                                  !- Algorithm

OS:SurfaceConvectionAlgorithm:Inside,
  {4adf67a1-2282-4571-94ba-ab57b0d2aa00}, !- Handle
  TARP;                                   !- Algorithm

OS:ZoneCapacitanceMultiplier:ResearchSpecial,
  {61ba1b6e-5271-4cb0-bac9-537d31afb30c}, !- Handle
  7,                                      !- Temperature Capacity Multiplier
  15,                                     !- Humidity Capacity Multiplier
  ;                                       !- Carbon Dioxide Capacity Multiplier

OS:ConvergenceLimits,
  {952bbc13-b2e9-4b35-b365-403924b3b1b4}, !- Handle
  0;                                      !- Minimum System Timestep {minutes}

OS:RunPeriod,
  {2add87d7-e255-4626-aae8-a22a16e0b53d}, !- Handle
  Run Period 1,                           !- Name
  1,                                      !- Begin Month
  1,                                      !- Begin Day of Month
  12,                                     !- End Month
  31,                                     !- End Day of Month
  ,                                       !- Use Weather File Holidays and Special Days
  ,                                       !- Use Weather File Daylight Saving Period
  ,                                       !- Apply Weekend Holiday Rule
  ,                                       !- Use Weather File Rain Indicators
  ,                                       !- Use Weather File Snow Indicators
  ;                                       !- Number of Times Runperiod to be Repeated

OS:PerformancePrecisionTradeoffs,
  {d1da72a1-9ada-4b0a-ab11-1696f31bac61}, !- Handle
  ,                                       !- Use Coil Direct Solutions
  CarrollMRT;                             !- Zone Radiant Exchange Algorithm

OS:WeatherFile,
  {11174f08-69a1-4e89-98a1-6f12938e9c37}, !- Handle
  Buffalo Niagara Intl Ap,                !- City
  NY,                                     !- State Province Region
  USA,                                    !- Country
  TMY3,                                   !- Data Source
  725280,                                 !- WMO Number
  42.93,                                  !- Latitude {deg}
  -78.73,                                 !- Longitude {deg}
  -5,                                     !- Time Zone {hr}
  215,                                    !- Elevation {m}
  /Users/nmoore/github/urbanopt-example-geojson-project/example_project/weather/USA_NY_Buffalo-Greater.Buffalo.Intl.AP.725280_TMY3.epw, !- Url
  6B50E0FF,                               !- Checksum
  ,                                       !- Start Date Actual Year
  Sunday;                                 !- Start Day of Week

OS:YearDescription,
  {66f0b9b2-c648-41aa-910e-90a85735f23d}, !- Handle
  2007,                                   !- Calendar Year
  ,                                       !- Day of Week for Start Day
  ;                                       !- Is Leap Year

OS:Site,
  {a9de019f-7ae5-4398-8591-e1b941c674ab}, !- Handle
  Buffalo Niagara Intl Ap_NY,             !- Name
  42.93,                                  !- Latitude {deg}
  -78.73,                                 !- Longitude {deg}
  -5,                                     !- Time Zone {hr}
  215,                                    !- Elevation {m}
  Suburbs,                                !- Terrain
  Yes;                                    !- Keep Site Location Information

OS:RunPeriodControl:DaylightSavingTime,
  {2ff8c202-2061-4d72-9b19-5d3b3dcdbe55}, !- Handle
  Mar 12,                                 !- Start Date
  Nov 5;                                  !- End Date

OS:Site:GroundTemperature:Shallow,
  {62ea356a-cf8d-45b8-86ce-6914139487db}, !- Handle
  4.30207395723828,                       !- January Surface Ground Temperature {C}
  2.29327249652502,                       !- February Surface Ground Temperature {C}
  2.13240047156047,                       !- March Surface Ground Temperature {C}
  3.08567940719286,                       !- April Surface Ground Temperature {C}
  6.91256312497526,                       !- May Surface Ground Temperature {C}
  10.7216195949507,                       !- June Surface Ground Temperature {C}
  14.0238679822574,                       !- July Surface Ground Temperature {C}
  16.1157611184724,                       !- August Surface Ground Temperature {C}
  16.2934789303462,                       !- September Surface Ground Temperature {C}
  14.5920754632847,                       !- October Surface Ground Temperature {C}
  11.374036348653,                        !- November Surface Ground Temperature {C}
  7.68182621661674;                       !- December Surface Ground Temperature {C}

OS:ThermalZone,
  {54900188-f484-4818-b5b2-1166ba28d51f}, !- Handle
  conditioned space,                      !- Name
  1,                                      !- Multiplier
  ,                                       !- Ceiling Height {m}
  692.06373070848,                        !- Volume {m3}
  ,                                       !- Floor Area {m2}
  ,                                       !- Zone Inside Convection Algorithm
  ,                                       !- Zone Outside Convection Algorithm
  ,                                       !- Zone Conditioning Equipment List Name
  {4b773ca9-86c2-400a-b9ff-a85b07b954c5}, !- Zone Air Inlet Port List
  {825a1efe-e151-4c21-be07-4832e9e631a8}, !- Zone Air Exhaust Port List
  {76d784dc-7f8b-4d0b-aaf2-a5ba48bbd1d7}, !- Zone Air Node Name
  {2823b90f-521c-4efc-84b8-c6b1d449d0af}, !- Zone Return Air Port List
  ,                                       !- Primary Daylighting Control Name
  ,                                       !- Fraction of Zone Controlled by Primary Daylighting Control
  ,                                       !- Secondary Daylighting Control Name
  ,                                       !- Fraction of Zone Controlled by Secondary Daylighting Control
  ,                                       !- Illuminance Map Name
  ,                                       !- Group Rendering Name
  {f48bb37e-8a30-436f-afab-3ad3b67232e3}, !- Thermostat Name
  No;                                     !- Use Ideal Air Loads

OS:Node,
  {732c68c0-02c1-4a3e-96f9-dd2c30347f26}, !- Handle
  Node 1,                                 !- Name
  {76d784dc-7f8b-4d0b-aaf2-a5ba48bbd1d7}, !- Inlet Port
  ;                                       !- Outlet Port

OS:Connection,
  {76d784dc-7f8b-4d0b-aaf2-a5ba48bbd1d7}, !- Handle
  {54900188-f484-4818-b5b2-1166ba28d51f}, !- Source Object
  11,                                     !- Outlet Port
  {732c68c0-02c1-4a3e-96f9-dd2c30347f26}, !- Target Object
  2;                                      !- Inlet Port

OS:PortList,
  {4b773ca9-86c2-400a-b9ff-a85b07b954c5}, !- Handle
  {54900188-f484-4818-b5b2-1166ba28d51f}, !- HVAC Component
  {f3248d01-aa0f-4d65-a2d6-32973e3a255a}; !- Port 1

OS:PortList,
  {825a1efe-e151-4c21-be07-4832e9e631a8}, !- Handle
  {54900188-f484-4818-b5b2-1166ba28d51f}; !- HVAC Component

OS:PortList,
  {2823b90f-521c-4efc-84b8-c6b1d449d0af}, !- Handle
  {54900188-f484-4818-b5b2-1166ba28d51f}, !- HVAC Component
  {1668c2f4-ba98-4b7e-b270-7adae8254a8e}; !- Port 1

OS:Sizing:Zone,
  {9538e3d5-d404-468e-b1d6-7ba184ef9b18}, !- Handle
  {54900188-f484-4818-b5b2-1166ba28d51f}, !- Zone or ZoneList Name
  SupplyAirTemperature,                   !- Zone Cooling Design Supply Air Temperature Input Method
  14,                                     !- Zone Cooling Design Supply Air Temperature {C}
  11.11,                                  !- Zone Cooling Design Supply Air Temperature Difference {deltaC}
  SupplyAirTemperature,                   !- Zone Heating Design Supply Air Temperature Input Method
  40,                                     !- Zone Heating Design Supply Air Temperature {C}
  11.11,                                  !- Zone Heating Design Supply Air Temperature Difference {deltaC}
  0.0085,                                 !- Zone Cooling Design Supply Air Humidity Ratio {kg-H2O/kg-air}
  0.008,                                  !- Zone Heating Design Supply Air Humidity Ratio {kg-H2O/kg-air}
  ,                                       !- Zone Heating Sizing Factor
  ,                                       !- Zone Cooling Sizing Factor
  DesignDay,                              !- Cooling Design Air Flow Method
  ,                                       !- Cooling Design Air Flow Rate {m3/s}
  ,                                       !- Cooling Minimum Air Flow per Zone Floor Area {m3/s-m2}
  ,                                       !- Cooling Minimum Air Flow {m3/s}
  ,                                       !- Cooling Minimum Air Flow Fraction
  DesignDay,                              !- Heating Design Air Flow Method
  ,                                       !- Heating Design Air Flow Rate {m3/s}
  ,                                       !- Heating Maximum Air Flow per Zone Floor Area {m3/s-m2}
  ,                                       !- Heating Maximum Air Flow {m3/s}
  ,                                       !- Heating Maximum Air Flow Fraction
  No,                                     !- Account for Dedicated Outdoor Air System
  NeutralSupplyAir,                       !- Dedicated Outdoor Air System Control Strategy
  autosize,                               !- Dedicated Outdoor Air Low Setpoint Temperature for Design {C}
  autosize,                               !- Dedicated Outdoor Air High Setpoint Temperature for Design {C}
  Sensible Load Only No Latent Load,      !- Zone Load Sizing Method
  HumidityRatioDifference,                !- Zone Latent Cooling Design Supply Air Humidity Ratio Input Method
  ,                                       !- Zone Dehumidification Design Supply Air Humidity Ratio {kgWater/kgDryAir}
  0.005,                                  !- Zone Cooling Design Supply Air Humidity Ratio Difference {kgWater/kgDryAir}
  HumidityRatioDifference,                !- Zone Latent Heating Design Supply Air Humidity Ratio Input Method
  ,                                       !- Zone Humidification Design Supply Air Humidity Ratio {kgWater/kgDryAir}
  0.005,                                  !- Zone Humidification Design Supply Air Humidity Ratio Difference {kgWater/kgDryAir}
  ,                                       !- Zone Humidistat Dehumidification Set Point Schedule Name
  ,                                       !- Zone Humidistat Humidification Set Point Schedule Name
  ,                                       !- Design Zone Air Distribution Effectiveness in Cooling Mode
  ,                                       !- Design Zone Air Distribution Effectiveness in Heating Mode
  ,                                       !- Design Zone Secondary Recirculation Fraction {dimensionless}
  ,                                       !- Design Minimum Zone Ventilation Efficiency {dimensionless}
  Coincident;                             !- Sizing Option

OS:ZoneHVAC:EquipmentList,
  {64402854-5dc2-4383-aa9b-ec10b1b38ed2}, !- Handle
  Zone HVAC Equipment List 1,             !- Name
  {54900188-f484-4818-b5b2-1166ba28d51f}, !- Thermal Zone
  ,                                       !- Load Distribution Scheme
  {fc6347b6-fa11-4b48-8196-7a87735194ee}, !- Zone Equipment 1
  1,                                      !- Zone Equipment Cooling Sequence 1
  1,                                      !- Zone Equipment Heating or No-Load Sequence 1
  {2001f358-6c35-4203-b17e-af16087a8d15}, !- Zone Equipment Sequential Cooling Fraction Schedule Name 1
  {9ddb5ab8-844a-443b-b08c-98f8c0adfffa}, !- Zone Equipment Sequential Heating Fraction Schedule Name 1
  {aeff796e-4090-419c-916f-0def691321e6}, !- Zone Equipment 2
  2,                                      !- Zone Equipment Cooling Sequence 2
  2,                                      !- Zone Equipment Heating or No-Load Sequence 2
  {c407aa0e-ee52-41e4-88b2-26e2678c6aa5}, !- Zone Equipment Sequential Cooling Fraction Schedule Name 2
  {8110e25a-f5ba-4bfc-b808-461b01a49f8d}; !- Zone Equipment Sequential Heating Fraction Schedule Name 2

OS:AdditionalProperties,
  {8625b8ef-4299-4878-a7b0-6e0eef4d683f}, !- Handle
  {54900188-f484-4818-b5b2-1166ba28d51f}, !- Object Name
  ObjectType,                             !- Feature Name 1
  String,                                 !- Feature Data Type 1
  conditioned space;                      !- Feature Value 1

OS:Space,
  {c3008d30-e51b-49dc-a207-2a6625d2b858}, !- Handle
  conditioned space 1,                    !- Name
  ,                                       !- Space Type Name
  ,                                       !- Default Construction Set Name
  ,                                       !- Default Schedule Set Name
  ,                                       !- Direction of Relative North {deg}
  ,                                       !- X Origin {m}
  ,                                       !- Y Origin {m}
  ,                                       !- Z Origin {m}
  ,                                       !- Building Story Name
  {54900188-f484-4818-b5b2-1166ba28d51f}, !- Thermal Zone Name
  ,                                       !- Part of Total Floor Area
  ,                                       !- Design Specification Outdoor Air Object Name
  ,                                       !- Building Unit Name
  692.06373070848;                        !- Volume {m3}

OS:Schedule:Ruleset,
  {267d568a-d33c-4251-b5e0-15b7926e8f8b}, !- Handle
  heating setpoint,                       !- Name
  {29da26ad-edb4-410a-afd3-3cbe2b44df8d}, !- Schedule Type Limits Name
  {203e6028-6f67-4165-aca0-1f82232eeeaa}; !- Default Day Schedule Name

OS:Schedule:Day,
  {203e6028-6f67-4165-aca0-1f82232eeeaa}, !- Handle
  heating setpoint default day,           !- Name
  {29da26ad-edb4-410a-afd3-3cbe2b44df8d}, !- Schedule Type Limits Name
  ,                                       !- Interpolate to Timestep
  24,                                     !- Hour 1
  0,                                      !- Minute 1
  0;                                      !- Value Until Time 1

OS:Schedule:Rule,
  {41382c66-e7c0-4e51-8de9-59287d9004a5}, !- Handle
  heating setpoint allday rule,           !- Name
  {267d568a-d33c-4251-b5e0-15b7926e8f8b}, !- Schedule Ruleset Name
  0,                                      !- Rule Order
  {98e13c2d-46ca-46e3-b1c8-a64c12a9ab56}, !- Day Schedule Name
  Yes,                                    !- Apply Sunday
  Yes,                                    !- Apply Monday
  Yes,                                    !- Apply Tuesday
  Yes,                                    !- Apply Wednesday
  Yes,                                    !- Apply Thursday
  Yes,                                    !- Apply Friday
  Yes,                                    !- Apply Saturday
  DateRange,                              !- Date Specification Type
  1,                                      !- Start Month
  1,                                      !- Start Day
  12,                                     !- End Month
  31;                                     !- End Day

OS:Schedule:Day,
  {98e13c2d-46ca-46e3-b1c8-a64c12a9ab56}, !- Handle
  heating setpoint day,                   !- Name
  {29da26ad-edb4-410a-afd3-3cbe2b44df8d}, !- Schedule Type Limits Name
  ,                                       !- Interpolate to Timestep
  24,                                     !- Hour 1
  0,                                      !- Minute 1
  20;                                     !- Value Until Time 1

OS:Schedule:Ruleset,
  {fbe33ba6-8d51-4a63-9cb6-4bb5e642a4c0}, !- Handle
  cooling setpoint,                       !- Name
  {29da26ad-edb4-410a-afd3-3cbe2b44df8d}, !- Schedule Type Limits Name
  {fd2f2b9e-6547-41b5-9aac-6fb689ab3def}; !- Default Day Schedule Name

OS:Schedule:Day,
  {fd2f2b9e-6547-41b5-9aac-6fb689ab3def}, !- Handle
  cooling setpoint default day,           !- Name
  {29da26ad-edb4-410a-afd3-3cbe2b44df8d}, !- Schedule Type Limits Name
  ,                                       !- Interpolate to Timestep
  24,                                     !- Hour 1
  0,                                      !- Minute 1
  0;                                      !- Value Until Time 1

OS:Schedule:Rule,
  {b91ff294-dd31-47a4-9cf0-b71c035cb41f}, !- Handle
  cooling setpoint allday rule,           !- Name
  {fbe33ba6-8d51-4a63-9cb6-4bb5e642a4c0}, !- Schedule Ruleset Name
  0,                                      !- Rule Order
  {f7f8254b-cee3-4c7a-8a0d-90eb5e7298c1}, !- Day Schedule Name
  Yes,                                    !- Apply Sunday
  Yes,                                    !- Apply Monday
  Yes,                                    !- Apply Tuesday
  Yes,                                    !- Apply Wednesday
  Yes,                                    !- Apply Thursday
  Yes,                                    !- Apply Friday
  Yes,                                    !- Apply Saturday
  DateRange,                              !- Date Specification Type
  1,                                      !- Start Month
  1,                                      !- Start Day
  12,                                     !- End Month
  31;                                     !- End Day

OS:Schedule:Day,
  {f7f8254b-cee3-4c7a-8a0d-90eb5e7298c1}, !- Handle
  cooling setpoint day,                   !- Name
  {29da26ad-edb4-410a-afd3-3cbe2b44df8d}, !- Schedule Type Limits Name
  ,                                       !- Interpolate to Timestep
  24,                                     !- Hour 1
  0,                                      !- Minute 1
  25.5555555555556;                       !- Value Until Time 1

OS:ThermostatSetpoint:DualSetpoint,
  {f48bb37e-8a30-436f-afab-3ad3b67232e3}, !- Handle
  conditioned space temperature setpoint, !- Name
  {267d568a-d33c-4251-b5e0-15b7926e8f8b}, !- Heating Setpoint Temperature Schedule Name
  {fbe33ba6-8d51-4a63-9cb6-4bb5e642a4c0}, !- Cooling Setpoint Temperature Schedule Name
  0;                                      !- Temperature Difference Between Cutout And Setpoint {deltaC}

OS:ScheduleTypeLimits,
  {29da26ad-edb4-410a-afd3-3cbe2b44df8d}, !- Handle
  Temperature,                            !- Name
  ,                                       !- Lower Limit Value
  ,                                       !- Upper Limit Value
  Continuous,                             !- Numeric Type
  Temperature;                            !- Unit Type

OS:Surface,
  {70bdba9f-3ea1-4f86-8b1c-5b08f91b881b}, !- Handle
  Roof1,                                  !- Name
  RoofCeiling,                            !- Surface Type
  {a5bdf1ee-c8e2-4bec-9c80-a28d3b8a531b}, !- Construction Name
  {ebe39579-dd87-43eb-aca4-e1ed48250515}, !- Space Name
  Outdoors,                               !- Outside Boundary Condition
  ,                                       !- Outside Boundary Condition Object
  SunExposed,                             !- Sun Exposure
  WindExposed,                            !- Wind Exposure
  ,                                       !- View Factor to Ground
  ,                                       !- Number of Vertices
  -26.9347048849634, 58.0557891618865, 2.4384, !- X,Y,Z Vertex 1 {m}
  -26.9347048849634, 46.7895631136661, 8.0715130241102, !- X,Y,Z Vertex 2 {m}
  -14.3386812381136, 46.7895631136661, 8.0715130241102, !- X,Y,Z Vertex 3 {m}
  -14.3386812381136, 58.0557891618865, 2.4384; !- X,Y,Z Vertex 4 {m}

OS:AdditionalProperties,
  {2c4f2b6b-3064-410b-b8f3-17b933e35fcc}, !- Handle
  {70bdba9f-3ea1-4f86-8b1c-5b08f91b881b}, !- Object Name
  Length,                                 !- Feature Name 1
  Double,                                 !- Feature Data Type 1
  41.325536899113608,                     !- Feature Value 1
  Width,                                  !- Feature Name 2
  Double,                                 !- Feature Data Type 2
  41.325536899113601,                     !- Feature Value 2
  Azimuth,                                !- Feature Name 3
  Integer,                                !- Feature Data Type 3
  0,                                      !- Feature Value 3
  Tilt,                                   !- Feature Name 4
  Double,                                 !- Feature Data Type 4
  0.5,                                    !- Feature Value 4
  SurfaceType,                            !- Feature Name 5
  String,                                 !- Feature Data Type 5
  Roof;                                   !- Feature Value 5

OS:ThermalZone,
  {b1610685-8202-432d-88c7-d3f8b41dc604}, !- Handle
  attic - vented,                         !- Name
  1,                                      !- Multiplier
  ,                                       !- Ceiling Height {m}
  356.390921899745,                       !- Volume {m3}
  ,                                       !- Floor Area {m2}
  ,                                       !- Zone Inside Convection Algorithm
  ,                                       !- Zone Outside Convection Algorithm
  ,                                       !- Zone Conditioning Equipment List Name
  {caf18851-0a4a-489a-a923-93fc02ba5238}, !- Zone Air Inlet Port List
  {0965b592-42ee-4314-95a9-89ed114f1106}, !- Zone Air Exhaust Port List
  {9eea3c9c-3646-49ee-9a49-fac9cb66e236}, !- Zone Air Node Name
  {6bd4658d-67d9-48a3-8e35-62c28c80087f}, !- Zone Return Air Port List
  ,                                       !- Primary Daylighting Control Name
  ,                                       !- Fraction of Zone Controlled by Primary Daylighting Control
  ,                                       !- Secondary Daylighting Control Name
  ,                                       !- Fraction of Zone Controlled by Secondary Daylighting Control
  ,                                       !- Illuminance Map Name
  ,                                       !- Group Rendering Name
  ,                                       !- Thermostat Name
  No;                                     !- Use Ideal Air Loads

OS:Node,
  {eb617f6b-716a-4a47-9368-4ee5f3d4204c}, !- Handle
  Node 2,                                 !- Name
  {9eea3c9c-3646-49ee-9a49-fac9cb66e236}, !- Inlet Port
  ;                                       !- Outlet Port

OS:Connection,
  {9eea3c9c-3646-49ee-9a49-fac9cb66e236}, !- Handle
  {b1610685-8202-432d-88c7-d3f8b41dc604}, !- Source Object
  11,                                     !- Outlet Port
  {eb617f6b-716a-4a47-9368-4ee5f3d4204c}, !- Target Object
  2;                                      !- Inlet Port

OS:PortList,
  {caf18851-0a4a-489a-a923-93fc02ba5238}, !- Handle
  {b1610685-8202-432d-88c7-d3f8b41dc604}; !- HVAC Component

OS:PortList,
  {0965b592-42ee-4314-95a9-89ed114f1106}, !- Handle
  {b1610685-8202-432d-88c7-d3f8b41dc604}; !- HVAC Component

OS:PortList,
  {6bd4658d-67d9-48a3-8e35-62c28c80087f}, !- Handle
  {b1610685-8202-432d-88c7-d3f8b41dc604}; !- HVAC Component

OS:Sizing:Zone,
  {4b57bfbc-79a4-4ddc-836a-adfee4195e44}, !- Handle
  {b1610685-8202-432d-88c7-d3f8b41dc604}, !- Zone or ZoneList Name
  SupplyAirTemperature,                   !- Zone Cooling Design Supply Air Temperature Input Method
  14,                                     !- Zone Cooling Design Supply Air Temperature {C}
  11.11,                                  !- Zone Cooling Design Supply Air Temperature Difference {deltaC}
  SupplyAirTemperature,                   !- Zone Heating Design Supply Air Temperature Input Method
  40,                                     !- Zone Heating Design Supply Air Temperature {C}
  11.11,                                  !- Zone Heating Design Supply Air Temperature Difference {deltaC}
  0.0085,                                 !- Zone Cooling Design Supply Air Humidity Ratio {kg-H2O/kg-air}
  0.008,                                  !- Zone Heating Design Supply Air Humidity Ratio {kg-H2O/kg-air}
  ,                                       !- Zone Heating Sizing Factor
  ,                                       !- Zone Cooling Sizing Factor
  DesignDay,                              !- Cooling Design Air Flow Method
  ,                                       !- Cooling Design Air Flow Rate {m3/s}
  ,                                       !- Cooling Minimum Air Flow per Zone Floor Area {m3/s-m2}
  ,                                       !- Cooling Minimum Air Flow {m3/s}
  ,                                       !- Cooling Minimum Air Flow Fraction
  DesignDay,                              !- Heating Design Air Flow Method
  ,                                       !- Heating Design Air Flow Rate {m3/s}
  ,                                       !- Heating Maximum Air Flow per Zone Floor Area {m3/s-m2}
  ,                                       !- Heating Maximum Air Flow {m3/s}
  ,                                       !- Heating Maximum Air Flow Fraction
  No,                                     !- Account for Dedicated Outdoor Air System
  NeutralSupplyAir,                       !- Dedicated Outdoor Air System Control Strategy
  autosize,                               !- Dedicated Outdoor Air Low Setpoint Temperature for Design {C}
  autosize,                               !- Dedicated Outdoor Air High Setpoint Temperature for Design {C}
  Sensible Load Only No Latent Load,      !- Zone Load Sizing Method
  HumidityRatioDifference,                !- Zone Latent Cooling Design Supply Air Humidity Ratio Input Method
  ,                                       !- Zone Dehumidification Design Supply Air Humidity Ratio {kgWater/kgDryAir}
  0.005,                                  !- Zone Cooling Design Supply Air Humidity Ratio Difference {kgWater/kgDryAir}
  HumidityRatioDifference,                !- Zone Latent Heating Design Supply Air Humidity Ratio Input Method
  ,                                       !- Zone Humidification Design Supply Air Humidity Ratio {kgWater/kgDryAir}
  0.005,                                  !- Zone Humidification Design Supply Air Humidity Ratio Difference {kgWater/kgDryAir}
  ,                                       !- Zone Humidistat Dehumidification Set Point Schedule Name
  ,                                       !- Zone Humidistat Humidification Set Point Schedule Name
  ,                                       !- Design Zone Air Distribution Effectiveness in Cooling Mode
  ,                                       !- Design Zone Air Distribution Effectiveness in Heating Mode
  ,                                       !- Design Zone Secondary Recirculation Fraction {dimensionless}
  ,                                       !- Design Minimum Zone Ventilation Efficiency {dimensionless}
  Coincident;                             !- Sizing Option

OS:ZoneHVAC:EquipmentList,
  {66c87140-3776-4cc6-88f9-42e99d449f16}, !- Handle
  Zone HVAC Equipment List 2,             !- Name
  {b1610685-8202-432d-88c7-d3f8b41dc604}; !- Thermal Zone

OS:AdditionalProperties,
  {966bbb67-c1c0-479a-a1e8-28388e18e4d3}, !- Handle
  {b1610685-8202-432d-88c7-d3f8b41dc604}, !- Object Name
  ObjectType,                             !- Feature Name 1
  String,                                 !- Feature Data Type 1
  attic - vented;                         !- Feature Value 1

OS:Space,
  {ebe39579-dd87-43eb-aca4-e1ed48250515}, !- Handle
  attic - vented 1,                       !- Name
  ,                                       !- Space Type Name
  ,                                       !- Default Construction Set Name
  ,                                       !- Default Schedule Set Name
  ,                                       !- Direction of Relative North {deg}
  ,                                       !- X Origin {m}
  ,                                       !- Y Origin {m}
  ,                                       !- Z Origin {m}
  ,                                       !- Building Story Name
  {b1610685-8202-432d-88c7-d3f8b41dc604}, !- Thermal Zone Name
  ,                                       !- Part of Total Floor Area
  ,                                       !- Design Specification Outdoor Air Object Name
  ,                                       !- Building Unit Name
  356.390921899745;                       !- Volume {m3}

OS:Material,
  {1aee24c3-1059-481a-a89b-abc6178279ea}, !- Handle
  asphalt or fiberglass shingles,         !- Name