
OS:Version,
  {c3a11e63-a1c0-4246-a379-63f927e2677e}, !- Handle
  3.9.0;                                  !- Version Identifier

OS:SimulationControl,
  {6beb9bae-665e-4d87-ae9a-5f4ca33a0e7b}, !- Handle
  ,                                       !- Do Zone Sizing Calculation
  ,                                       !- Do System Sizing Calculation
  ,                                       !- Do Plant Sizing Calculation
  No;                                     !- Run Simulation for Sizing Periods

OS:Timestep,
  {2c0ca8f6-16f9-4535-9d27-a31ef977f023}, !- Handle
  1;                                      !- Number of Timesteps per Hour

OS:ShadowCalculation,
  {a230f14c-ba73-4d12-b7a1-7c49ffb4db36}, !- Handle
  PolygonClipping,                        !- Shading Calculation Method
  ,                                       !- Shading Calculation Update Frequency Method
  20,                                     !- Shading Calculation Update Frequency
  200,                                    !- Maximum Figures in Shadow Overlap Calculations
  ,                                       !- Polygon Clipping Algorithm
  512,                                    !- Pixel Counting Resolution
  ,                                       !- Sky Diffuse Modeling Algorithm
  No,                                     !- Output External Shading Calculation Results
  No,                                     !- Disable Self-Shading Within Shading Zone Groups
  No;                                     !- Disable Self-Shading From Shading Zone Groups to Other Zones

OS:SurfaceConvectionAlgorithm:Outside,
  {8af0ccfe-2aca-4294-9b4e-6ac55e8f0712}, !- Handle
  DOE-2;                                  !- Algorithm

OS:SurfaceConvectionAlgorithm:Inside,
  {499dc4a4-0fd2-4734-a1cf-60026d77de29}, !- Handle
  TARP;                                   !- Algorithm

OS:ZoneCapacitanceMultiplier:ResearchSpecial,
  {995b32e3-60c5-4f13-bce2-490b730e836c}, !- Handle
  7,                                      !- Temperature Capacity Multiplier
  15,                                     !- Humidity Capacity Multiplier
  ;                                       !- Carbon Dioxide Capacity Multiplier

OS:ConvergenceLimits,
  {8bc947d5-fbee-40d7-a35e-d54dab76eabd}, !- Handle
  0;                                      !- Minimum System Timestep {minutes}

OS:RunPeriod,
  {af5c9b3f-592e-41b3-a95a-3398394fdb17}, !- Handle
  Run Period 1,                           !- Name
  1,                                      !- Begin Month
  1,                                      !- Begin Day of Month
  12,                                     !- End Month
  31,                                     !- End Day of Month
  ,                                       !- Use Weather File Holidays and Special Days
  ,                                       !- Use Weather File Daylight Saving Period
  ,                                       !- Apply Weekend Holiday Rule
  ,                                       !- Use Weather File Rain Indicators
  ,                                       !- Use Weather File Snow Indicators
  ;                                       !- Number of Times Runperiod to be Repeated

OS:PerformancePrecisionTradeoffs,
  {fcc02030-6696-489a-af6b-86a3c7cefa88}, !- Handle
  ,                                       !- Use Coil Direct Solutions
  CarrollMRT;                             !- Zone Radiant Exchange Algorithm

OS:WeatherFile,
  {2a9ef6e4-db6c-4c2f-9d86-894e3dd5a71f}, !- Handle
  Buffalo Niagara Intl Ap,                !- City
  NY,                                     !- State Province Region
  USA,                                    !- Country
  TMY3,                                   !- Data Source
  725280,                                 !- WMO Number
  42.93,                                  !- Latitude {deg}
  -78.73,                                 !- Longitude {deg}
  -5,                                     !- Time Zone {hr}
  215,                                    !- Elevation {m}
  /Users/nmoore/github/urbanopt-example-geojson-project/example_project/weather/USA_NY_Buffalo-Greater.Buffalo.Intl.AP.725280_TMY3.epw, !- Url
  6B50E0FF,                               !- Checksum
  ,                                       !- Start Date Actual Year
  Sunday;                                 !- Start Day of Week

OS:YearDescription,
  {8d9fec47-9468-48b0-ae55-11b40624ebe2}, !- Handle
  2007,                                   !- Calendar Year
  ,                                       !- Day of Week for Start Day
  ;                                       !- Is Leap Year

OS:Site,
  {0e8de591-cc48-4686-be90-7ba9442457ee}, !- Handle
  Buffalo Niagara Intl Ap_NY,             !- Name
  42.93,                                  !- Latitude {deg}
  -78.73,                                 !- Longitude {deg}
  -5,                                     !- Time Zone {hr}
  215,                                    !- Elevation {m}
  Suburbs,                                !- Terrain
  Yes;                                    !- Keep Site Location Information

OS:RunPeriodControl:DaylightSavingTime,
  {213d2fde-3c3f-4898-b87a-aa5364206fb0}, !- Handle
  Mar 12,                                 !- Start Date
  Nov 5;                                  !- End Date

OS:Site:GroundTemperature:Shallow,
  {f69d217a-5b8a-4af6-9b6d-76db5b9ad4c4}, !- Handle
  4.30207395723828,                       !- January Surface Ground Temperature {C}
  2.29327249652502,                       !- February Surface Ground Temperature {C}
  2.13240047156047,                       !- March Surface Ground Temperature {C}
  3.08567940719286,                       !- April Surface Ground Temperature {C}
  6.91256312497526,                       !- May Surface Ground Temperature {C}
  10.7216195949507,                       !- June Surface Ground Temperature {C}
  14.0238679822574,                       !- July Surface Ground Temperature {C}
  16.1157611184724,                       !- August Surface Ground Temperature {C}
  16.2934789303462,                       !- September Surface Ground Temperature {C}
  14.5920754632847,                       !- October Surface Ground Temperature {C}
  11.374036348653,                        !- November Surface Ground Temperature {C}
  7.68182621661674;                       !- December Surface Ground Temperature {C}

OS:ThermalZone,
  {299a9101-4fe8-45c2-b7b2-8424506622ce}, !- Handle
  conditioned space,                      !- Name
  1,                                      !- Multiplier
  ,                                       !- Ceiling Height {m}
  692.06373070848,                        !- Volume {m3}
  ,                                       !- Floor Area {m2}
  ,                                       !- Zone Inside Convection Algorithm
  ,                                       !- Zone Outside Convection Algorithm
  ,                                       !- Zone Conditioning Equipment List Name
  {643fb57e-9af4-4b80-a30d-729465fa0eba}, !- Zone Air Inlet Port List
  {b53afec1-e0d3-4494-9ed3-d6c1fae38da0}, !- Zone Air Exhaust Port List
  {23924227-6dfb-40fe-baf7-20856cb6aa5e}, !- Zone Air Node Name
  {b2e88738-7d5f-404e-9ecd-9a3b9be57872}, !- Zone Return Air Port List
  ,                                       !- Primary Daylighting Control Name
  ,                                       !- Fraction of Zone Controlled by Primary Daylighting Control
  ,                                       !- Secondary Daylighting Control Name
  ,                                       !- Fraction of Zone Controlled by Secondary Daylighting Control
  ,                                       !- Illuminance Map Name
  ,                                       !- Group Rendering Name
  {11f05862-1bea-4e27-ba31-b206470ced5a}, !- Thermostat Name
  No;                                     !- Use Ideal Air Loads

OS:Node,
  {3f952d7b-7b47-4117-ad44-97905fa154f3}, !- Handle
  Node 1,                                 !- Name
  {23924227-6dfb-40fe-baf7-20856cb6aa5e}, !- Inlet Port
  ;                                       !- Outlet Port

OS:Connection,
  {23924227-6dfb-40fe-baf7-20856cb6aa5e}, !- Handle
  {299a9101-4fe8-45c2-b7b2-8424506622ce}, !- Source Object
  11,                                     !- Outlet Port
  {3f952d7b-7b47-4117-ad44-97905fa154f3}, !- Target Object
  2;                                      !- Inlet Port

OS:PortList,
  {643fb57e-9af4-4b80-a30d-729465fa0eba}, !- Handle
  {299a9101-4fe8-45c2-b7b2-8424506622ce}, !- HVAC Component
  {b9245710-3a44-4b9f-b869-e8d79111a80e}; !- Port 1

OS:PortList,
  {b53afec1-e0d3-4494-9ed3-d6c1fae38da0}, !- Handle
  {299a9101-4fe8-45c2-b7b2-8424506622ce}; !- HVAC Component

OS:PortList,
  {b2e88738-7d5f-404e-9ecd-9a3b9be57872}, !- Handle
  {299a9101-4fe8-45c2-b7b2-8424506622ce}, !- HVAC Component
  {8936636d-f6fd-46bb-a88a-664d5d123ce8}; !- Port 1

OS:Sizing:Zone,
  {baa43019-984d-4db5-a05a-b470ed65bfe7}, !- Handle
  {299a9101-4fe8-45c2-b7b2-8424506622ce}, !- Zone or ZoneList Name
  SupplyAirTemperature,                   !- Zone Cooling Design Supply Air Temperature Input Method
  14,                                     !- Zone Cooling Design Supply Air Temperature {C}
  11.11,                                  !- Zone Cooling Design Supply Air Temperature Difference {deltaC}
  SupplyAirTemperature,                   !- Zone Heating Design Supply Air Temperature Input Method
  40,                                     !- Zone Heating Design Supply Air Temperature {C}
  11.11,                                  !- Zone Heating Design Supply Air Temperature Difference {deltaC}
  0.0085,                                 !- Zone Cooling Design Supply Air Humidity Ratio {kg-H2O/kg-air}
  0.008,                                  !- Zone Heating Design Supply Air Humidity Ratio {kg-H2O/kg-air}
  ,                                       !- Zone Heating Sizing Factor
  ,                                       !- Zone Cooling Sizing Factor
  DesignDay,                              !- Cooling Design Air Flow Method
  ,                                       !- Cooling Design Air Flow Rate {m3/s}
  ,                                       !- Cooling Minimum Air Flow per Zone Floor Area {m3/s-m2}
  ,                                       !- Cooling Minimum Air Flow {m3/s}
  ,                                       !- Cooling Minimum Air Flow Fraction
  DesignDay,                              !- Heating Design Air Flow Method
  ,                                       !- Heating Design Air Flow Rate {m3/s}
  ,                                       !- Heating Maximum Air Flow per Zone Floor Area {m3/s-m2}
  ,                                       !- Heating Maximum Air Flow {m3/s}
  ,                                       !- Heating Maximum Air Flow Fraction
  No,                                     !- Account for Dedicated Outdoor Air System
  NeutralSupplyAir,                       !- Dedicated Outdoor Air System Control Strategy
  autosize,                               !- Dedicated Outdoor Air Low Setpoint Temperature for Design {C}
  autosize,                               !- Dedicated Outdoor Air High Setpoint Temperature for Design {C}
  Sensible Load Only No Latent Load,      !- Zone Load Sizing Method
  HumidityRatioDifference,                !- Zone Latent Cooling Design Supply Air Humidity Ratio Input Method
  ,                                       !- Zone Dehumidification Design Supply Air Humidity Ratio {kgWater/kgDryAir}
  0.005,                                  !- Zone Cooling Design Supply Air Humidity Ratio Difference {kgWater/kgDryAir}
  HumidityRatioDifference,                !- Zone Latent Heating Design Supply Air Humidity Ratio Input Method
  ,                                       !- Zone Humidification Design Supply Air Humidity Ratio {kgWater/kgDryAir}
  0.005,                                  !- Zone Humidification Design Supply Air Humidity Ratio Difference {kgWater/kgDryAir}
  ,                                       !- Zone Humidistat Dehumidification Set Point Schedule Name
  ,                                       !- Zone Humidistat Humidification Set Point Schedule Name
  ,                                       !- Design Zone Air Distribution Effectiveness in Cooling Mode
  ,                                       !- Design Zone Air Distribution Effectiveness in Heating Mode
  ,                                       !- Design Zone Secondary Recirculation Fraction {dimensionless}
  ,                                       !- Design Minimum Zone Ventilation Efficiency {dimensionless}
  Coincident;                             !- Sizing Option

OS:ZoneHVAC:EquipmentList,
  {9d809ea9-e72f-451e-96f0-41c404746c44}, !- Handle
  Zone HVAC Equipment List 1,             !- Name
  {299a9101-4fe8-45c2-b7b2-8424506622ce}, !- Thermal Zone
  ,                                       !- Load Distribution Scheme
  {063e8208-2533-4ef5-ba97-daf15e8ee410}, !- Zone Equipment 1
  1,                                      !- Zone Equipment Cooling Sequence 1
  1,                                      !- Zone Equipment Heating or No-Load Sequence 1
  {93f28277-e8f0-4934-8592-28dd294c67e7}, !- Zone Equipment Sequential Cooling Fraction Schedule Name 1
  {54d0a840-592e-47c7-8fdb-336c9b130b2c}, !- Zone Equipment Sequential Heating Fraction Schedule Name 1
  {08b67115-3c7f-4623-9587-b3d502693a55}, !- Zone Equipment 2
  2,                                      !- Zone Equipment Cooling Sequence 2
  2,                                      !- Zone Equipment Heating or No-Load Sequence 2
  {c67c2091-07c5-4dcb-a7c4-7c33d30f6c53}, !- Zone Equipment Sequential Cooling Fraction Schedule Name 2
  {9fbba7da-f684-4160-9902-63fecd872e6f}; !- Zone Equipment Sequential Heating Fraction Schedule Name 2

OS:AdditionalProperties,
  {eaa59507-eb60-48e3-a2a6-3ca7b121d958}, !- Handle
  {299a9101-4fe8-45c2-b7b2-8424506622ce}, !- Object Name
  ObjectType,                             !- Feature Name 1
  String,                                 !- Feature Data Type 1
  conditioned space;                      !- Feature Value 1

OS:Space,
  {39fd92f9-8e9e-40f9-953e-8367182d8b88}, !- Handle
  conditioned space 1,                    !- Name
  ,                                       !- Space Type Name
  ,                                       !- Default Construction Set Name
  ,                                       !- Default Schedule Set Name
  ,                                       !- Direction of Relative North {deg}
  ,                                       !- X Origin {m}
  ,                                       !- Y Origin {m}
  ,                                       !- Z Origin {m}
  ,                                       !- Building Story Name
  {299a9101-4fe8-45c2-b7b2-8424506622ce}, !- Thermal Zone Name
  ,                                       !- Part of Total Floor Area
  ,                                       !- Design Specification Outdoor Air Object Name
  ,                                       !- Building Unit Name
  692.06373070848;                        !- Volume {m3}

OS:Schedule:Ruleset,
  {ac55c6b2-35b1-4e26-996b-9ef2fb7d5b8b}, !- Handle
  heating setpoint,                       !- Name
  {4c2a35d7-bb90-452b-bd27-f9dddba8446e}, !- Schedule Type Limits Name
  {1f071c99-f615-481c-a153-0f1a5ce6dfb9}; !- Default Day Schedule Name

OS:Schedule:Day,
  {1f071c99-f615-481c-a153-0f1a5ce6dfb9}, !- Handle
  heating setpoint default day,           !- Name
  {4c2a35d7-bb90-452b-bd27-f9dddba8446e}, !- Schedule Type Limits Name
  ,                                       !- Interpolate to Timestep
  24,                                     !- Hour 1
  0,                                      !- Minute 1
  0;                                      !- Value Until Time 1

OS:Schedule:Rule,
  {9f28ad7c-3100-4509-9a63-bdb2934de7b3}, !- Handle
  heating setpoint allday rule,           !- Name
  {ac55c6b2-35b1-4e26-996b-9ef2fb7d5b8b}, !- Schedule Ruleset Name
  0,                                      !- Rule Order
  {fc9c7493-7dfd-4ef8-a902-a4c054bde896}, !- Day Schedule Name
  Yes,                                    !- Apply Sunday
  Yes,                                    !- Apply Monday
  Yes,                                    !- Apply Tuesday
  Yes,                                    !- Apply Wednesday
  Yes,                                    !- Apply Thursday
  Yes,                                    !- Apply Friday
  Yes,                                    !- Apply Saturday
  DateRange,                              !- Date Specification Type
  1,                                      !- Start Month
  1,                                      !- Start Day
  12,                                     !- End Month
  31;                                     !- End Day

OS:Schedule:Day,
  {fc9c7493-7dfd-4ef8-a902-a4c054bde896}, !- Handle
  heating setpoint day,                   !- Name
  {4c2a35d7-bb90-452b-bd27-f9dddba8446e}, !- Schedule Type Limits Name
  ,                                       !- Interpolate to Timestep
  24,                                     !- Hour 1
  0,                                      !- Minute 1
  20;                                     !- Value Until Time 1

OS:Schedule:Ruleset,
  {4281ed62-5cd5-49a5-9277-32f83e04690d}, !- Handle
  cooling setpoint,                       !- Name
  {4c2a35d7-bb90-452b-bd27-f9dddba8446e}, !- Schedule Type Limits Name
  {78c824d3-6fcd-4aa8-ae65-f39892627da3}; !- Default Day Schedule Name

OS:Schedule:Day,
  {78c824d3-6fcd-4aa8-ae65-f39892627da3}, !- Handle
  cooling setpoint default day,           !- Name
  {4c2a35d7-bb90-452b-bd27-f9dddba8446e}, !- Schedule Type Limits Name
  ,                                       !- Interpolate to Timestep
  24,                                     !- Hour 1
  0,                                      !- Minute 1
  0;                                      !- Value Until Time 1

OS:Schedule:Rule,
  {9cee46dd-5c0b-49d8-8e36-c3791e509cdf}, !- Handle
  cooling setpoint allday rule,           !- Name
  {4281ed62-5cd5-49a5-9277-32f83e04690d}, !- Schedule Ruleset Name
  0,                                      !- Rule Order
  {606043b3-b266-4dba-a2ce-6a613116ae58}, !- Day Schedule Name
  Yes,                                    !- Apply Sunday
  Yes,                                    !- Apply Monday
  Yes,                                    !- Apply Tuesday
  Yes,                                    !- Apply Wednesday
  Yes,                                    !- Apply Thursday
  Yes,                                    !- Apply Friday
  Yes,                                    !- Apply Saturday
  DateRange,                              !- Date Specification Type
  1,                                      !- Start Month
  1,                                      !- Start Day
  12,                                     !- End Month
  31;                                     !- End Day

OS:Schedule:Day,
  {606043b3-b266-4dba-a2ce-6a613116ae58}, !- Handle
  cooling setpoint day,                   !- Name
  {4c2a35d7-bb90-452b-bd27-f9dddba8446e}, !- Schedule Type Limits Name
  ,                                       !- Interpolate to Timestep
  24,                                     !- Hour 1
  0,                                      !- Minute 1
  25.5555555555556;                       !- Value Until Time 1

OS:ThermostatSetpoint:DualSetpoint,
  {11f05862-1bea-4e27-ba31-b206470ced5a}, !- Handle
  conditioned space temperature setpoint, !- Name
  {ac55c6b2-35b1-4e26-996b-9ef2fb7d5b8b}, !- Heating Setpoint Temperature Schedule Name
  {4281ed62-5cd5-49a5-9277-32f83e04690d}, !- Cooling Setpoint Temperature Schedule Name
  0;                                      !- Temperature Difference Between Cutout And Setpoint {deltaC}

OS:ScheduleTypeLimits,
  {4c2a35d7-bb90-452b-bd27-f9dddba8446e}, !- Handle
  Temperature,                            !- Name
  ,                                       !- Lower Limit Value
  ,                                       !- Upper Limit Value
  Continuous,                             !- Numeric Type
  Temperature;                            !- Unit Type

OS:Surface,
  {7fb3a400-0080-4e06-88f0-6064f9d686a9}, !- Handle
  Roof1,                                  !- Name
  RoofCeiling,                            !- Surface Type
  {16dc85ba-6fc0-49da-816b-64f0cc7482ca}, !- Construction Name
  {c33940ff-06fb-429c-aedf-ef3f6463a541}, !- Space Name
  Outdoors,                               !- Outside Boundary Condition
  ,                                       !- Outside Boundary Condition Object
  SunExposed,                             !- Sun Exposure
  WindExposed,                            !- Wind Exposure
  ,                                       !- View Factor to Ground
  ,                                       !- Number of Vertices
  -26.9347048849634, 58.0557891618865, 2.4384, !- X,Y,Z Vertex 1 {m}
  -26.9347048849634, 46.7895631136661, 8.0715130241102, !- X,Y,Z Vertex 2 {m}
  -14.3386812381136, 46.7895631136661, 8.0715130241102, !- X,Y,Z Vertex 3 {m}
  -14.3386812381136, 58.0557891618865, 2.4384; !- X,Y,Z Vertex 4 {m}

OS:AdditionalProperties,
  {38bd09b4-81ab-4a6a-8e14-d5be8ea9988c}, !- Handle
  {7fb3a400-0080-4e06-88f0-6064f9d686a9}, !- Object Name
  Length,                                 !- Feature Name 1
  Double,                                 !- Feature Data Type 1
  41.325536899113608,                     !- Feature Value 1
  Width,                                  !- Feature Name 2
  Double,                                 !- Feature Data Type 2
  41.325536899113601,                     !- Feature Value 2
  Azimuth,                                !- Feature Name 3
  Integer,                                !- Feature Data Type 3
  0,                                      !- Feature Value 3
  Tilt,                                   !- Feature Name 4
  Double,                                 !- Feature Data Type 4
  0.5,                                    !- Feature Value 4
  SurfaceType,                            !- Feature Name 5
  String,                                 !- Feature Data Type 5
  Roof;                                   !- Feature Value 5

OS:ThermalZone,
  {919136f7-45a8-476b-a09e-4cc74b734b4d}, !- Handle
  attic - vented,                         !- Name
  1,                                      !- Multiplier
  ,                                       !- Ceiling Height {m}
  356.389957095237,                       !- Volume {m3}
  ,                                       !- Floor Area {m2}
  ,                                       !- Zone Inside Convection Algorithm
  ,                                       !- Zone Outside Convection Algorithm
  ,                                       !- Zone Conditioning Equipment List Name
  {029a18d9-ee08-4105-bae7-036c5af215ce}, !- Zone Air Inlet Port List
  {a2a5f231-f954-4184-b1ab-d37ae10654c4}, !- Zone Air Exhaust Port List
  {a770d714-245d-4ef5-ad88-2f2b2c398ffb}, !- Zone Air Node Name
  {62092f2a-655e-4a9e-ac43-95fe518bb589}, !- Zone Return Air Port List
  ,                                       !- Primary Daylighting Control Name
  ,                                       !- Fraction of Zone Controlled by Primary Daylighting Control
  ,                                       !- Secondary Daylighting Control Name
  ,                                       !- Fraction of Zone Controlled by Secondary Daylighting Control
  ,                                       !- Illuminance Map Name
  ,                                       !- Group Rendering Name
  ,                                       !- Thermostat Name
  No;                                     !- Use Ideal Air Loads

OS:Node,
  {f8a73671-4a73-4821-8719-202e0cfe4080}, !- Handle
  Node 2,                                 !- Name
  {a770d714-245d-4ef5-ad88-2f2b2c398ffb}, !- Inlet Port
  ;                                       !- Outlet Port

OS:Connection,
  {a770d714-245d-4ef5-ad88-2f2b2c398ffb}, !- Handle
  {919136f7-45a8-476b-a09e-4cc74b734b4d}, !- Source Object
  11,                                     !- Outlet Port
  {f8a73671-4a73-4821-8719-202e0cfe4080}, !- Target Object
  2;                                      !- Inlet Port

OS:PortList,
  {029a18d9-ee08-4105-bae7-036c5af215ce}, !- Handle
  {919136f7-45a8-476b-a09e-4cc74b734b4d}; !- HVAC Component

OS:PortList,
  {a2a5f231-f954-4184-b1ab-d37ae10654c4}, !- Handle
  {919136f7-45a8-476b-a09e-4cc74b734b4d}; !- HVAC Component

OS:PortList,
  {62092f2a-655e-4a9e-ac43-95fe518bb589}, !- Handle
  {919136f7-45a8-476b-a09e-4cc74b734b4d}; !- HVAC Component

OS:Sizing:Zone,
  {91d4f851-f49c-4e53-a4ec-2f0c037af6bf}, !- Handle
  {919136f7-45a8-476b-a09e-4cc74b734b4d}, !- Zone or ZoneList Name
  SupplyAirTemperature,                   !- Zone Cooling Design Supply Air Temperature Input Method
  14,                                     !- Zone Cooling Design Supply Air Temperature {C}
  11.11,                                  !- Zone Cooling Design Supply Air Temperature Difference {deltaC}
  SupplyAirTemperature,                   !- Zone Heating Design Supply Air Temperature Input Method
  40,                                     !- Zone Heating Design Supply Air Temperature {C}
  11.11,                                  !- Zone Heating Design Supply Air Temperature Difference {deltaC}
  0.0085,                                 !- Zone Cooling Design Supply Air Humidity Ratio {kg-H2O/kg-air}
  0.008,                                  !- Zone Heating Design Supply Air Humidity Ratio {kg-H2O/kg-air}
  ,                                       !- Zone Heating Sizing Factor
  ,                                       !- Zone Cooling Sizing Factor
  DesignDay,                              !- Cooling Design Air Flow Method
  ,                                       !- Cooling Design Air Flow Rate {m3/s}
  ,                                       !- Cooling Minimum Air Flow per Zone Floor Area {m3/s-m2}
  ,                                       !- Cooling Minimum Air Flow {m3/s}
  ,                                       !- Cooling Minimum Air Flow Fraction
  DesignDay,                              !- Heating Design Air Flow Method
  ,                                       !- Heating Design Air Flow Rate {m3/s}
  ,                                       !- Heating Maximum Air Flow per Zone Floor Area {m3/s-m2}
  ,                                       !- Heating Maximum Air Flow {m3/s}
  ,                                       !- Heating Maximum Air Flow Fraction
  No,                                     !- Account for Dedicated Outdoor Air System
  NeutralSupplyAir,                       !- Dedicated Outdoor Air System Control Strategy
  autosize,                               !- Dedicated Outdoor Air Low Setpoint Temperature for Design {C}
  autosize,                               !- Dedicated Outdoor Air High Setpoint Temperature for Design {C}
  Sensible Load Only No Latent Load,      !- Zone Load Sizing Method
  HumidityRatioDifference,                !- Zone Latent Cooling Design Supply Air Humidity Ratio Input Method
  ,                                       !- Zone Dehumidification Design Supply Air Humidity Ratio {kgWater/kgDryAir}
  0.005,                                  !- Zone Cooling Design Supply Air Humidity Ratio Difference {kgWater/kgDryAir}
  HumidityRatioDifference,                !- Zone Latent Heating Design Supply Air Humidity Ratio Input Method
  ,                                       !- Zone Humidification Design Supply Air Humidity Ratio {kgWater/kgDryAir}
  0.005,                                  !- Zone Humidification Design Supply Air Humidity Ratio Difference {kgWater/kgDryAir}
  ,                                       !- Zone Humidistat Dehumidification Set Point Schedule Name
  ,                                       !- Zone Humidistat Humidification Set Point Schedule Name
  ,                                       !- Design Zone Air Distribution Effectiveness in Cooling Mode
  ,                                       !- Design Zone Air Distribution Effectiveness in Heating Mode
  ,                                       !- Design Zone Secondary Recirculation Fraction {dimensionless}
  ,                                       !- Design Minimum Zone Ventilation Efficiency {dimensionless}
  Coincident;                             !- Sizing Option

OS:ZoneHVAC:EquipmentList,
  {d0f8684a-e969-4ffd-b8cc-7506d995c30b}, !- Handle
  Zone HVAC Equipment List 2,             !- Name
  {919136f7-45a8-476b-a09e-4cc74b734b4d}; !- Thermal Zone

OS:AdditionalProperties,
  {8fb3f627-324d-43f6-be45-7770fb0476ea}, !- Handle
  {919136f7-45a8-476b-a09e-4cc74b734b4d}, !- Object Name
  ObjectType,                             !- Feature Name 1
  String,                                 !- Feature Data Type 1
  attic - vented;                         !- Feature Value 1

OS:Space,
  {c33940ff-06fb-429c-aedf-ef3f6463a541}, !- Handle
  attic - vented 1,                       !- Name
  ,                                       !- Space Type Name
  ,                                       !- Default Construction Set Name
  ,                                       !- Default Schedule Set Name
  ,                                       !- Direction of Relative North {deg}
  ,                                       !- X Origin {m}
  ,                                       !- Y Origin {m}
  ,                                       !- Z Origin {m}
  ,                                       !- Building Story Name
  {919136f7-45a8-476b-a09e-4cc74b734b4d}, !- Thermal Zone Name
  ,                                       !- Part of Total Floor Area
  ,                                       !- Design Specification Outdoor Air Object Name
  ,                                       !- Building Unit Name
  356.389957095237;                       !- Volume {m3}

OS:Material,
  {a7e7b2fe-9c4f-4bfe-bc8f-c60a1b0d58c4}, !- Handle
  asphalt or fiberglass shingles,         !- Name