
OS:Version,
  {7fa1418d-b497-4f9e-b2da-70e3dbba836f}, !- Handle
  3.10.0;                                 !- Version Identifier

OS:SimulationControl,
  {c5d485a8-cc3e-4355-8d50-e6c9a531aca8}, !- Handle
  ,                                       !- Do Zone Sizing Calculation
  ,                                       !- Do System Sizing Calculation
  ,                                       !- Do Plant Sizing Calculation
  No;                                     !- Run Simulation for Sizing Periods

OS:Timestep,
  {10509d09-7e51-475d-8410-3fcefdb4fbad}, !- Handle
  1;                                      !- Number of Timesteps per Hour

OS:ShadowCalculation,
  {45ad5904-7ebe-4379-8230-92fc4fa49fae}, !- Handle
  PolygonClipping,                        !- Shading Calculation Method
  ,                                       !- Shading Calculation Update Frequency Method
  20,                                     !- Shading Calculation Update Frequency
  200,                                    !- Maximum Figures in Shadow Overlap Calculations
  ,                                       !- Polygon Clipping Algorithm
  512,                                    !- Pixel Counting Resolution
  ,                                       !- Sky Diffuse Modeling Algorithm
  No,                                     !- Output External Shading Calculation Results
  No,                                     !- Disable Self-Shading Within Shading Zone Groups
  No;                                     !- Disable Self-Shading From Shading Zone Groups to Other Zones

OS:SurfaceConvectionAlgorithm:Outside,
  {3f8f0040-2a50-4abb-bfcb-5da9651e0203}, !- Handle
  DOE-2;                                  !- Algorithm

OS:SurfaceConvectionAlgorithm:Inside,
  {60088f99-9c50-43cc-87cc-79ce301faed0}, !- Handle
  TARP;                                   !- Algorithm

OS:ZoneCapacitanceMultiplier:ResearchSpecial,
  {7119d861-c699-4fe7-851f-3c1b5f98b9b7}, !- Handle
  7,                                      !- Temperature Capacity Multiplier
  15,                                     !- Humidity Capacity Multiplier
  ;                                       !- Carbon Dioxide Capacity Multiplier

OS:ConvergenceLimits,
  {7e68ba18-a21b-4892-8ee0-104708541fd0}, !- Handle
  0;                                      !- Minimum System Timestep {minutes}

OS:RunPeriod,
  {f6498347-ca4c-4304-98a1-736553339bea}, !- Handle
  Run Period 1,                           !- Name
  1,                                      !- Begin Month
  1,                                      !- Begin Day of Month
  12,                                     !- End Month
  31,                                     !- End Day of Month
  ,                                       !- Use Weather File Holidays and Special Days
  ,                                       !- Use Weather File Daylight Saving Period
  ,                                       !- Apply Weekend Holiday Rule
  ,                                       !- Use Weather File Rain Indicators
  ,                                       !- Use Weather File Snow Indicators
  ;                                       !- Number of Times Runperiod to be Repeated

OS:PerformancePrecisionTradeoffs,
  {a2c6e564-36db-400a-ad33-ab5ca23eff72}, !- Handle
  ,                                       !- Use Coil Direct Solutions
  CarrollMRT;                             !- Zone Radiant Exchange Algorithm

OS:WeatherFile,
  {4efc0d40-eefa-4a2b-b0b9-21a630ffec06}, !- Handle
  Buffalo Niagara Intl Ap,                !- City
  NY,                                     !- State Province Region
  USA,                                    !- Country
  TMY3,                                   !- Data Source
  725280,                                 !- WMO Number
  42.93,                                  !- Latitude {deg}
  -78.73,                                 !- Longitude {deg}
  -5,                                     !- Time Zone {hr}
  215,                                    !- Elevation {m}
  /Users/nmoore/github/urbanopt-example-geojson-project/example_project/weather/USA_NY_Buffalo-Greater.Buffalo.Intl.AP.725280_TMY3.epw, !- Url
  6B50E0FF,                               !- Checksum
  ,                                       !- Start Date Actual Year
  Sunday;                                 !- Start Day of Week

OS:YearDescription,
  {91487ffc-36e6-482d-bfcc-4768f7f4d5d5}, !- Handle
  2007,                                   !- Calendar Year
  ,                                       !- Day of Week for Start Day
  ;                                       !- Is Leap Year

OS:Site,
  {99d7bad3-79da-42cc-ad78-9a7ee66d4528}, !- Handle
  Buffalo Niagara Intl Ap_NY,             !- Name
  42.93,                                  !- Latitude {deg}
  -78.73,                                 !- Longitude {deg}
  -5,                                     !- Time Zone {hr}
  215,                                    !- Elevation {m}
  Suburbs,                                !- Terrain
  Yes;                                    !- Keep Site Location Information

OS:RunPeriodControl:DaylightSavingTime,
  {12048295-1448-4b75-9091-12304ef68a51}, !- Handle
  Mar 12,                                 !- Start Date
  Nov 5;                                  !- End Date

OS:Site:GroundTemperature:Shallow,
  {a5eb186d-a1f9-40d5-a4dc-320e0a51bee0}, !- Handle
  4.30207395723828,                       !- January Surface Ground Temperature {C}
  2.29327249652502,                       !- February Surface Ground Temperature {C}
  2.13240047156047,                       !- March Surface Ground Temperature {C}
  3.08567940719286,                       !- April Surface Ground Temperature {C}
  6.91256312497526,                       !- May Surface Ground Temperature {C}
  10.7216195949507,                       !- June Surface Ground Temperature {C}
  14.0238679822574,                       !- July Surface Ground Temperature {C}
  16.1157611184724,                       !- August Surface Ground Temperature {C}
  16.2934789303462,                       !- September Surface Ground Temperature {C}
  14.5920754632847,                       !- October Surface Ground Temperature {C}
  11.374036348653,                        !- November Surface Ground Temperature {C}
  7.68182621661674;                       !- December Surface Ground Temperature {C}

OS:ThermalZone,
  {2cb730de-c49a-4057-a1da-6abd8a074a3e}, !- Handle
  conditioned space,                      !- Name
  1,                                      !- Multiplier
  ,                                       !- Ceiling Height {m}
  692.06373070848,                        !- Volume {m3}
  ,                                       !- Floor Area {m2}
  ,                                       !- Zone Inside Convection Algorithm
  ,                                       !- Zone Outside Convection Algorithm
  ,                                       !- Zone Conditioning Equipment List Name
  {b071e47d-42b2-4bbc-8e79-1b40659841ba}, !- Zone Air Inlet Port List
  {ff1590fe-52ed-4081-9463-630976d96475}, !- Zone Air Exhaust Port List
  {ead12b5f-6c06-4d93-8cec-ad4c175c55e8}, !- Zone Air Node Name
  {2a6fb71c-37d7-4d16-91aa-7035a4fda241}, !- Zone Return Air Port List
  ,                                       !- Primary Daylighting Control Name
  ,                                       !- Fraction of Zone Controlled by Primary Daylighting Control
  ,                                       !- Secondary Daylighting Control Name
  ,                                       !- Fraction of Zone Controlled by Secondary Daylighting Control
  ,                                       !- Illuminance Map Name
  ,                                       !- Group Rendering Name
  {af22f1dc-b887-4372-abf9-d3700884eedf}, !- Thermostat Name
  No;                                     !- Use Ideal Air Loads

OS:Node,
  {711436e1-4e1d-49ca-95d6-ed55eab177a6}, !- Handle
  Node 1,                                 !- Name
  {ead12b5f-6c06-4d93-8cec-ad4c175c55e8}, !- Inlet Port
  ;                                       !- Outlet Port

OS:Connection,
  {ead12b5f-6c06-4d93-8cec-ad4c175c55e8}, !- Handle
  {2cb730de-c49a-4057-a1da-6abd8a074a3e}, !- Source Object
  11,                                     !- Outlet Port
  {711436e1-4e1d-49ca-95d6-ed55eab177a6}, !- Target Object
  2;                                      !- Inlet Port

OS:PortList,
  {b071e47d-42b2-4bbc-8e79-1b40659841ba}, !- Handle
  {2cb730de-c49a-4057-a1da-6abd8a074a3e}, !- HVAC Component
  {09fc72a0-7eb5-4fca-886a-e8ff09d9e650}; !- Port 1

OS:PortList,
  {ff1590fe-52ed-4081-9463-630976d96475}, !- Handle
  {2cb730de-c49a-4057-a1da-6abd8a074a3e}; !- HVAC Component

OS:PortList,
  {2a6fb71c-37d7-4d16-91aa-7035a4fda241}, !- Handle
  {2cb730de-c49a-4057-a1da-6abd8a074a3e}, !- HVAC Component
  {84fbdccb-5761-46d5-9b66-33bd093f6609}; !- Port 1

OS:Sizing:Zone,
  {953c8e3b-a8b3-4f69-968d-4c6ce11cc813}, !- Handle
  {2cb730de-c49a-4057-a1da-6abd8a074a3e}, !- Zone or ZoneList Name
  SupplyAirTemperature,                   !- Zone Cooling Design Supply Air Temperature Input Method
  14,                                     !- Zone Cooling Design Supply Air Temperature {C}
  11.11,                                  !- Zone Cooling Design Supply Air Temperature Difference {deltaC}
  SupplyAirTemperature,                   !- Zone Heating Design Supply Air Temperature Input Method
  40,                                     !- Zone Heating Design Supply Air Temperature {C}
  11.11,                                  !- Zone Heating Design Supply Air Temperature Difference {deltaC}
  0.0085,                                 !- Zone Cooling Design Supply Air Humidity Ratio {kg-H2O/kg-air}
  0.008,                                  !- Zone Heating Design Supply Air Humidity Ratio {kg-H2O/kg-air}
  ,                                       !- Zone Heating Sizing Factor
  ,                                       !- Zone Cooling Sizing Factor
  DesignDay,                              !- Cooling Design Air Flow Method
  ,                                       !- Cooling Design Air Flow Rate {m3/s}
  ,                                       !- Cooling Minimum Air Flow per Zone Floor Area {m3/s-m2}
  ,                                       !- Cooling Minimum Air Flow {m3/s}
  ,                                       !- Cooling Minimum Air Flow Fraction
  DesignDay,                              !- Heating Design Air Flow Method
  ,                                       !- Heating Design Air Flow Rate {m3/s}
  ,                                       !- Heating Maximum Air Flow per Zone Floor Area {m3/s-m2}
  ,                                       !- Heating Maximum Air Flow {m3/s}
  ,                                       !- Heating Maximum Air Flow Fraction
  No,                                     !- Account for Dedicated Outdoor Air System
  NeutralSupplyAir,                       !- Dedicated Outdoor Air System Control Strategy
  autosize,                               !- Dedicated Outdoor Air Low Setpoint Temperature for Design {C}
  autosize,                               !- Dedicated Outdoor Air High Setpoint Temperature for Design {C}
  Sensible Load Only No Latent Load,      !- Zone Load Sizing Method
  HumidityRatioDifference,                !- Zone Latent Cooling Design Supply Air Humidity Ratio Input Method
  ,                                       !- Zone Dehumidification Design Supply Air Humidity Ratio {kgWater/kgDryAir}
  0.005,                                  !- Zone Cooling Design Supply Air Humidity Ratio Difference {kgWater/kgDryAir}
  HumidityRatioDifference,                !- Zone Latent Heating Design Supply Air Humidity Ratio Input Method
  ,                                       !- Zone Humidification Design Supply Air Humidity Ratio {kgWater/kgDryAir}
  0.005,                                  !- Zone Humidification Design Supply Air Humidity Ratio Difference {kgWater/kgDryAir}
  ,                                       !- Zone Humidistat Dehumidification Set Point Schedule Name
  ,                                       !- Zone Humidistat Humidification Set Point Schedule Name
  ,                                       !- Design Zone Air Distribution Effectiveness in Cooling Mode
  ,                                       !- Design Zone Air Distribution Effectiveness in Heating Mode
  ,                                       !- Design Zone Secondary Recirculation Fraction {dimensionless}
  ,                                       !- Design Minimum Zone Ventilation Efficiency {dimensionless}
  Coincident;                             !- Sizing Option

OS:ZoneHVAC:EquipmentList,
  {739933f4-5aa4-4251-ae99-39feba06047d}, !- Handle
  Zone HVAC Equipment List 1,             !- Name
  {2cb730de-c49a-4057-a1da-6abd8a074a3e}, !- Thermal Zone
  ,                                       !- Load Distribution Scheme
  {b7df4d89-2af6-4bcd-b16b-77f4cd42c9e0}, !- Zone Equipment 1
  1,                                      !- Zone Equipment Cooling Sequence 1
  1,                                      !- Zone Equipment Heating or No-Load Sequence 1
  {075bf9b8-031d-4b40-8865-e185161bea2e}, !- Zone Equipment Sequential Cooling Fraction Schedule Name 1
  {513248b8-3e73-4b15-84e5-3a5d8731e4e1}; !- Zone Equipment Sequential Heating Fraction Schedule Name 1

OS:AdditionalProperties,
  {82f2a801-70ca-40e0-9343-0d7aab8c4a15}, !- Handle
  {2cb730de-c49a-4057-a1da-6abd8a074a3e}, !- Object Name
  ObjectType,                             !- Feature Name 1
  String,                                 !- Feature Data Type 1
  conditioned space;                      !- Feature Value 1

OS:Space,
  {9438fee7-c79b-4152-89d9-ea8231a494d9}, !- Handle
  conditioned space 1,                    !- Name
  ,                                       !- Space Type Name
  ,                                       !- Default Construction Set Name
  ,                                       !- Default Schedule Set Name
  ,                                       !- Direction of Relative North {deg}
  ,                                       !- X Origin {m}
  ,                                       !- Y Origin {m}
  ,                                       !- Z Origin {m}
  ,                                       !- Building Story Name
  {2cb730de-c49a-4057-a1da-6abd8a074a3e}, !- Thermal Zone Name
  ,                                       !- Part of Total Floor Area
  ,                                       !- Design Specification Outdoor Air Object Name
  ,                                       !- Building Unit Name
  692.06373070848;                        !- Volume {m3}

OS:Schedule:Ruleset,
  {841d0cbd-de12-4d06-b660-0449be1bbdb7}, !- Handle
  heating setpoint,                       !- Name
  {5059989a-08f9-4e5d-a0b1-c150c31ecf09}, !- Schedule Type Limits Name
  {00d50b57-5aaf-4366-91f3-c4380b2aa492}; !- Default Day Schedule Name

OS:Schedule:Day,
  {00d50b57-5aaf-4366-91f3-c4380b2aa492}, !- Handle
  heating setpoint default day,           !- Name
  {5059989a-08f9-4e5d-a0b1-c150c31ecf09}, !- Schedule Type Limits Name
  ,                                       !- Interpolate to Timestep
  24,                                     !- Hour 1
  0,                                      !- Minute 1
  0;                                      !- Value Until Time 1

OS:Schedule:Rule,
  {346f3a37-f1e7-4a00-9891-4366fa072e32}, !- Handle
  heating setpoint allday rule,           !- Name
  {841d0cbd-de12-4d06-b660-0449be1bbdb7}, !- Schedule Ruleset Name
  0,                                      !- Rule Order
  {9c5eb343-0b1c-49c0-b992-4138697d4c29}, !- Day Schedule Name
  Yes,                                    !- Apply Sunday
  Yes,                                    !- Apply Monday
  Yes,                                    !- Apply Tuesday
  Yes,                                    !- Apply Wednesday
  Yes,                                    !- Apply Thursday
  Yes,                                    !- Apply Friday
  Yes,                                    !- Apply Saturday
  DateRange,                              !- Date Specification Type
  1,                                      !- Start Month
  1,                                      !- Start Day
  12,                                     !- End Month
  31;                                     !- End Day

OS:Schedule:Day,
  {9c5eb343-0b1c-49c0-b992-4138697d4c29}, !- Handle
  heating setpoint day,                   !- Name
  {5059989a-08f9-4e5d-a0b1-c150c31ecf09}, !- Schedule Type Limits Name
  ,                                       !- Interpolate to Timestep
  24,                                     !- Hour 1
  0,                                      !- Minute 1
  20;                                     !- Value Until Time 1

OS:Schedule:Ruleset,
  {4dc702df-0d7e-4c3b-9149-a8229724d2a0}, !- Handle
  cooling setpoint,                       !- Name
  {5059989a-08f9-4e5d-a0b1-c150c31ecf09}, !- Schedule Type Limits Name
  {548b61e6-41b1-40bd-a444-9f56b25813e2}; !- Default Day Schedule Name

OS:Schedule:Day,
  {548b61e6-41b1-40bd-a444-9f56b25813e2}, !- Handle
  cooling setpoint default day,           !- Name
  {5059989a-08f9-4e5d-a0b1-c150c31ecf09}, !- Schedule Type Limits Name
  ,                                       !- Interpolate to Timestep
  24,                                     !- Hour 1
  0,                                      !- Minute 1
  0;                                      !- Value Until Time 1

OS:Schedule:Rule,
  {73a4c6c0-8b85-4dee-971a-a7bb713336cc}, !- Handle
  cooling setpoint allday rule,           !- Name
  {4dc702df-0d7e-4c3b-9149-a8229724d2a0}, !- Schedule Ruleset Name
  0,                                      !- Rule Order
  {0d066ff4-020e-4645-ad55-5919652a8904}, !- Day Schedule Name
  Yes,                                    !- Apply Sunday
  Yes,                                    !- Apply Monday
  Yes,                                    !- Apply Tuesday
  Yes,                                    !- Apply Wednesday
  Yes,                                    !- Apply Thursday
  Yes,                                    !- Apply Friday
  Yes,                                    !- Apply Saturday
  DateRange,                              !- Date Specification Type
  1,                                      !- Start Month
  1,                                      !- Start Day
  12,                                     !- End Month
  31;                                     !- End Day

OS:Schedule:Day,
  {0d066ff4-020e-4645-ad55-5919652a8904}, !- Handle
  cooling setpoint day,                   !- Name
  {5059989a-08f9-4e5d-a0b1-c150c31ecf09}, !- Schedule Type Limits Name
  ,                                       !- Interpolate to Timestep
  24,                                     !- Hour 1
  0,                                      !- Minute 1
  25.5555555555556;                       !- Value Until Time 1

OS:ThermostatSetpoint:DualSetpoint,
  {af22f1dc-b887-4372-abf9-d3700884eedf}, !- Handle
  conditioned space temperature setpoint, !- Name
  {841d0cbd-de12-4d06-b660-0449be1bbdb7}, !- Heating Setpoint Temperature Schedule Name
  {4dc702df-0d7e-4c3b-9149-a8229724d2a0}, !- Cooling Setpoint Temperature Schedule Name
  0;                                      !- Temperature Difference Between Cutout And Setpoint {deltaC}

OS:ScheduleTypeLimits,
  {5059989a-08f9-4e5d-a0b1-c150c31ecf09}, !- Handle
  Temperature,                            !- Name
  ,                                       !- Lower Limit Value
  ,                                       !- Upper Limit Value
  Continuous,                             !- Numeric Type
  Temperature;                            !- Unit Type

OS:Surface,
  {089ab798-a31c-4c58-970e-1798c020f5cf}, !- Handle
  Roof1,                                  !- Name
  RoofCeiling,                            !- Surface Type
  {27b5890f-c63a-40fd-8dee-d852e01617cc}, !- Construction Name
  {d9efede2-497e-4307-aa85-f50564420021}, !- Space Name
  Outdoors,                               !- Outside Boundary Condition
  ,                                       !- Outside Boundary Condition Object
  SunExposed,                             !- Sun Exposure
  WindExposed,                            !- Wind Exposure
  ,                                       !- View Factor to Ground
  ,                                       !- Number of Vertices
  -26.9347048849634, 58.0557891618865, 2.4384, !- X,Y,Z Vertex 1 {m}
  -26.9347048849634, 46.7895631136661, 8.0715130241102, !- X,Y,Z Vertex 2 {m}
  -14.3386812381136, 46.7895631136661, 8.0715130241102, !- X,Y,Z Vertex 3 {m}
  -14.3386812381136, 58.0557891618865, 2.4384; !- X,Y,Z Vertex 4 {m}

OS:AdditionalProperties,
  {8180b1d5-361f-42f6-b9fd-20abd8af7d86}, !- Handle
  {089ab798-a31c-4c58-970e-1798c020f5cf}, !- Object Name
  Length,                                 !- Feature Name 1
  Double,                                 !- Feature Data Type 1
  41.325536899113608,                     !- Feature Value 1
  Width,                                  !- Feature Name 2
  Double,                                 !- Feature Data Type 2
  41.325536899113601,                     !- Feature Value 2
  Azimuth,                                !- Feature Name 3
  Integer,                                !- Feature Data Type 3
  0,                                      !- Feature Value 3
  Tilt,                                   !- Feature Name 4
  Double,                                 !- Feature Data Type 4
  0.5,                                    !- Feature Value 4
  SurfaceType,                            !- Feature Name 5
  String,                                 !- Feature Data Type 5
  Roof;                                   !- Feature Value 5

OS:ThermalZone,
  {17df3cdc-19e0-43a4-8ef3-f8f748a5dcf4}, !- Handle
  attic - vented,                         !- Name
  1,                                      !- Multiplier
  ,                                       !- Ceiling Height {m}
  356.390921899745,                       !- Volume {m3}
  ,                                       !- Floor Area {m2}
  ,                                       !- Zone Inside Convection Algorithm
  ,                                       !- Zone Outside Convection Algorithm
  ,                                       !- Zone Conditioning Equipment List Name
  {e3b06f63-9de4-4e39-ba4b-b44bfb5e3438}, !- Zone Air Inlet Port List
  {be074f84-a3eb-4d4e-9317-4e784fe2ac44}, !- Zone Air Exhaust Port List
  {2f8c04f5-d4e6-4aec-8734-f0ae719506c3}, !- Zone Air Node Name
  {ceb1f3b8-38dc-4108-a5f0-d3d03868ba9e}, !- Zone Return Air Port List
  ,                                       !- Primary Daylighting Control Name
  ,                                       !- Fraction of Zone Controlled by Primary Daylighting Control
  ,                                       !- Secondary Daylighting Control Name
  ,                                       !- Fraction of Zone Controlled by Secondary Daylighting Control
  ,                                       !- Illuminance Map Name
  ,                                       !- Group Rendering Name
  ,                                       !- Thermostat Name
  No;                                     !- Use Ideal Air Loads

OS:Node,
  {90394734-46d7-49a6-ad7d-da98fb2975f1}, !- Handle
  Node 2,                                 !- Name
  {2f8c04f5-d4e6-4aec-8734-f0ae719506c3}, !- Inlet Port
  ;                                       !- Outlet Port

OS:Connection,
  {2f8c04f5-d4e6-4aec-8734-f0ae719506c3}, !- Handle
  {17df3cdc-19e0-43a4-8ef3-f8f748a5dcf4}, !- Source Object
  11,                                     !- Outlet Port
  {90394734-46d7-49a6-ad7d-da98fb2975f1}, !- Target Object
  2;                                      !- Inlet Port

OS:PortList,
  {e3b06f63-9de4-4e39-ba4b-b44bfb5e3438}, !- Handle
  {17df3cdc-19e0-43a4-8ef3-f8f748a5dcf4}; !- HVAC Component

OS:PortList,
  {be074f84-a3eb-4d4e-9317-4e784fe2ac44}, !- Handle
  {17df3cdc-19e0-43a4-8ef3-f8f748a5dcf4}; !- HVAC Component

OS:PortList,
  {ceb1f3b8-38dc-4108-a5f0-d3d03868ba9e}, !- Handle
  {17df3cdc-19e0-43a4-8ef3-f8f748a5dcf4}; !- HVAC Component

OS:Sizing:Zone,
  {e7e79061-886b-4b41-8bad-3e5ba878a025}, !- Handle
  {17df3cdc-19e0-43a4-8ef3-f8f748a5dcf4}, !- Zone or ZoneList Name
  SupplyAirTemperature,                   !- Zone Cooling Design Supply Air Temperature Input Method
  14,                                     !- Zone Cooling Design Supply Air Temperature {C}
  11.11,                                  !- Zone Cooling Design Supply Air Temperature Difference {deltaC}
  SupplyAirTemperature,                   !- Zone Heating Design Supply Air Temperature Input Method
  40,                                     !- Zone Heating Design Supply Air Temperature {C}
  11.11,                                  !- Zone Heating Design Supply Air Temperature Difference {deltaC}
  0.0085,                                 !- Zone Cooling Design Supply Air Humidity Ratio {kg-H2O/kg-air}
  0.008,                                  !- Zone Heating Design Supply Air Humidity Ratio {kg-H2O/kg-air}
  ,                                       !- Zone Heating Sizing Factor
  ,                                       !- Zone Cooling Sizing Factor
  DesignDay,                              !- Cooling Design Air Flow Method
  ,                                       !- Cooling Design Air Flow Rate {m3/s}
  ,                                       !- Cooling Minimum Air Flow per Zone Floor Area {m3/s-m2}
  ,                                       !- Cooling Minimum Air Flow {m3/s}
  ,                                       !- Cooling Minimum Air Flow Fraction
  DesignDay,                              !- Heating Design Air Flow Method
  ,                                       !- Heating Design Air Flow Rate {m3/s}
  ,                                       !- Heating Maximum Air Flow per Zone Floor Area {m3/s-m2}
  ,                                       !- Heating Maximum Air Flow {m3/s}
  ,                                       !- Heating Maximum Air Flow Fraction
  No,                                     !- Account for Dedicated Outdoor Air System
  NeutralSupplyAir,                       !- Dedicated Outdoor Air System Control Strategy
  autosize,                               !- Dedicated Outdoor Air Low Setpoint Temperature for Design {C}
  autosize,                               !- Dedicated Outdoor Air High Setpoint Temperature for Design {C}
  Sensible Load Only No Latent Load,      !- Zone Load Sizing Method
  HumidityRatioDifference,                !- Zone Latent Cooling Design Supply Air Humidity Ratio Input Method
  ,                                       !- Zone Dehumidification Design Supply Air Humidity Ratio {kgWater/kgDryAir}
  0.005,                                  !- Zone Cooling Design Supply Air Humidity Ratio Difference {kgWater/kgDryAir}
  HumidityRatioDifference,                !- Zone Latent Heating Design Supply Air Humidity Ratio Input Method
  ,                                       !- Zone Humidification Design Supply Air Humidity Ratio {kgWater/kgDryAir}
  0.005,                                  !- Zone Humidification Design Supply Air Humidity Ratio Difference {kgWater/kgDryAir}
  ,                                       !- Zone Humidistat Dehumidification Set Point Schedule Name
  ,                                       !- Zone Humidistat Humidification Set Point Schedule Name
  ,                                       !- Design Zone Air Distribution Effectiveness in Cooling Mode
  ,                                       !- Design Zone Air Distribution Effectiveness in Heating Mode
  ,                                       !- Design Zone Secondary Recirculation Fraction {dimensionless}
  ,                                       !- Design Minimum Zone Ventilation Efficiency {dimensionless}
  Coincident;                             !- Sizing Option

OS:ZoneHVAC:EquipmentList,
  {6a9422c8-e739-4c64-a4c6-75fd8ea880b8}, !- Handle
  Zone HVAC Equipment List 2,             !- Name
  {17df3cdc-19e0-43a4-8ef3-f8f748a5dcf4}; !- Thermal Zone

OS:AdditionalProperties,
  {7fb853e5-d7c1-423a-b5d5-ef0f967d2472}, !- Handle
  {17df3cdc-19e0-43a4-8ef3-f8f748a5dcf4}, !- Object Name
  ObjectType,                             !- Feature Name 1
  String,                                 !- Feature Data Type 1
  attic - vented;                         !- Feature Value 1

OS:Space,
  {d9efede2-497e-4307-aa85-f50564420021}, !- Handle
  attic - vented 1,                       !- Name
  ,                                       !- Space Type Name
  ,                                       !- Default Construction Set Name
  ,                                       !- Default Schedule Set Name
  ,                                       !- Direction of Relative North {deg}
  ,                                       !- X Origin {m}
  ,                                       !- Y Origin {m}
  ,                                       !- Z Origin {m}
  ,                                       !- Building Story Name
  {17df3cdc-19e0-43a4-8ef3-f8f748a5dcf4}, !- Thermal Zone Name
  ,                                       !- Part of Total Floor Area
  ,                                       !- Design Specification Outdoor Air Object Name
  ,                                       !- Building Unit Name
  356.390921899745;                       !- Volume {m3}

OS:Material,
  {4e034764-e5ca-498e-99b3-a1fe6ef31804}, !- Handle
  asphalt or fiberglass shingles,         !- Name
  Rough,                                  !- Roughness
  0.00635,                                !- Thickness {m}
  0.162714,                               !- Conductivity {W/m-K}
  1121.4,                                 !- Density {kg/m3}
  1465.45,                                !- Specific Heat {J/kg-K}
  0.9,                                    !- Thermal Absorptance
  0.85,                                   !- Solar Absorptance