
OS:Version,
  {d7f81b7d-a739-4e67-912f-678677eb493f}, !- Handle
  3.9.0;                                  !- Version Identifier

OS:SimulationControl,
  {f44fcf9c-a1a0-483d-acf5-482ae25688b0}, !- Handle
  ,                                       !- Do Zone Sizing Calculation
  ,                                       !- Do System Sizing Calculation
  ,                                       !- Do Plant Sizing Calculation
  No;                                     !- Run Simulation for Sizing Periods

OS:Timestep,
  {21725b63-f1a0-46a6-9fce-9eca725cacaf}, !- Handle
  1;                                      !- Number of Timesteps per Hour

OS:ShadowCalculation,
  {75d05454-2381-4913-82ef-8f02051de6f7}, !- Handle
  PolygonClipping,                        !- Shading Calculation Method
  ,                                       !- Shading Calculation Update Frequency Method
  20,                                     !- Shading Calculation Update Frequency
  200,                                    !- Maximum Figures in Shadow Overlap Calculations
  ,                                       !- Polygon Clipping Algorithm
  512,                                    !- Pixel Counting Resolution
  ,                                       !- Sky Diffuse Modeling Algorithm
  No,                                     !- Output External Shading Calculation Results
  No,                                     !- Disable Self-Shading Within Shading Zone Groups
  No;                                     !- Disable Self-Shading From Shading Zone Groups to Other Zones

OS:SurfaceConvectionAlgorithm:Outside,
  {a1a64493-b037-48cf-83ad-84962ff44122}, !- Handle
  DOE-2;                                  !- Algorithm

OS:SurfaceConvectionAlgorithm:Inside,
  {66d75cf0-65d0-4df7-a1ff-92430571159a}, !- Handle
  TARP;                                   !- Algorithm

OS:ZoneCapacitanceMultiplier:ResearchSpecial,
  {a0de9d9e-49ef-4754-b3e5-c7d0973a5abe}, !- Handle
  7,                                      !- Temperature Capacity Multiplier
  15,                                     !- Humidity Capacity Multiplier
  ;                                       !- Carbon Dioxide Capacity Multiplier

OS:ConvergenceLimits,
  {a1e421ea-a6b1-461d-bf6a-c9f7dce205a8}, !- Handle
  0;                                      !- Minimum System Timestep {minutes}

OS:RunPeriod,
  {6d012bc7-dae3-40a6-a8be-b197e64ec96d}, !- Handle
  Run Period 1,                           !- Name
  1,                                      !- Begin Month
  1,                                      !- Begin Day of Month
  12,                                     !- End Month
  31,                                     !- End Day of Month
  ,                                       !- Use Weather File Holidays and Special Days
  ,                                       !- Use Weather File Daylight Saving Period
  ,                                       !- Apply Weekend Holiday Rule
  ,                                       !- Use Weather File Rain Indicators
  ,                                       !- Use Weather File Snow Indicators
  ;                                       !- Number of Times Runperiod to be Repeated

OS:PerformancePrecisionTradeoffs,
  {8a0243f3-a1be-4af2-a0b6-746964db0249}, !- Handle
  ,                                       !- Use Coil Direct Solutions
  CarrollMRT;                             !- Zone Radiant Exchange Algorithm

OS:WeatherFile,
  {507a8005-a279-44a1-8379-6ed91f1b6f05}, !- Handle
  Buffalo Niagara Intl Ap,                !- City
  NY,                                     !- State Province Region
  USA,                                    !- Country
  TMY3,                                   !- Data Source
  725280,                                 !- WMO Number
  42.93,                                  !- Latitude {deg}
  -78.73,                                 !- Longitude {deg}
  -5,                                     !- Time Zone {hr}
  215,                                    !- Elevation {m}
  /Users/nmoore/github/urbanopt-example-geojson-project/example_project/weather/USA_NY_Buffalo-Greater.Buffalo.Intl.AP.725280_TMY3.epw, !- Url
  6B50E0FF,                               !- Checksum
  ,                                       !- Start Date Actual Year
  Sunday;                                 !- Start Day of Week

OS:YearDescription,
  {f5161f39-a527-4e61-b99c-fa071aaa3cee}, !- Handle
  2007,                                   !- Calendar Year
  ,                                       !- Day of Week for Start Day
  ;                                       !- Is Leap Year

OS:Site,
  {d27bf6f7-3eb2-4dd4-a268-6bc45ab30f0d}, !- Handle
  Buffalo Niagara Intl Ap_NY,             !- Name
  42.93,                                  !- Latitude {deg}
  -78.73,                                 !- Longitude {deg}
  -5,                                     !- Time Zone {hr}
  215,                                    !- Elevation {m}
  Suburbs,                                !- Terrain
  Yes;                                    !- Keep Site Location Information

OS:RunPeriodControl:DaylightSavingTime,
  {f3992fdb-7a31-4421-9243-6a9f9e20d2ca}, !- Handle
  Mar 12,                                 !- Start Date
  Nov 5;                                  !- End Date

OS:Site:GroundTemperature:Shallow,
  {a97129f6-e59a-42e4-8fc4-2fa162aa6bdd}, !- Handle
  4.30207395723828,                       !- January Surface Ground Temperature {C}
  2.29327249652502,                       !- February Surface Ground Temperature {C}
  2.13240047156047,                       !- March Surface Ground Temperature {C}
  3.08567940719286,                       !- April Surface Ground Temperature {C}
  6.91256312497526,                       !- May Surface Ground Temperature {C}
  10.7216195949507,                       !- June Surface Ground Temperature {C}
  14.0238679822574,                       !- July Surface Ground Temperature {C}
  16.1157611184724,                       !- August Surface Ground Temperature {C}
  16.2934789303462,                       !- September Surface Ground Temperature {C}
  14.5920754632847,                       !- October Surface Ground Temperature {C}
  11.374036348653,                        !- November Surface Ground Temperature {C}
  7.68182621661674;                       !- December Surface Ground Temperature {C}

OS:ThermalZone,
  {b9f4154c-64ea-4159-aa26-b0696343135e}, !- Handle
  conditioned space,                      !- Name
  1,                                      !- Multiplier
  ,                                       !- Ceiling Height {m}
  692.06373070848,                        !- Volume {m3}
  ,                                       !- Floor Area {m2}
  ,                                       !- Zone Inside Convection Algorithm
  ,                                       !- Zone Outside Convection Algorithm
  ,                                       !- Zone Conditioning Equipment List Name
  {185ed5ed-975c-466c-b6c0-9e08d6ad74f6}, !- Zone Air Inlet Port List
  {42a07636-ddb4-4244-970e-daad65747cb8}, !- Zone Air Exhaust Port List
  {63bd0585-1c50-4e07-b86b-3ef25296822a}, !- Zone Air Node Name
  {44760e69-cd46-48ad-9744-d90442c73d25}, !- Zone Return Air Port List
  ,                                       !- Primary Daylighting Control Name
  ,                                       !- Fraction of Zone Controlled by Primary Daylighting Control
  ,                                       !- Secondary Daylighting Control Name
  ,                                       !- Fraction of Zone Controlled by Secondary Daylighting Control
  ,                                       !- Illuminance Map Name
  ,                                       !- Group Rendering Name
  {887ee5e5-19e6-4690-b3b2-8254905ecf34}, !- Thermostat Name
  No;                                     !- Use Ideal Air Loads

OS:Node,
  {287e7b5d-1f66-4362-aeae-fe6358307dc1}, !- Handle
  Node 1,                                 !- Name
  {63bd0585-1c50-4e07-b86b-3ef25296822a}, !- Inlet Port
  ;                                       !- Outlet Port

OS:Connection,
  {63bd0585-1c50-4e07-b86b-3ef25296822a}, !- Handle
  {b9f4154c-64ea-4159-aa26-b0696343135e}, !- Source Object
  11,                                     !- Outlet Port
  {287e7b5d-1f66-4362-aeae-fe6358307dc1}, !- Target Object
  2;                                      !- Inlet Port

OS:PortList,
  {185ed5ed-975c-466c-b6c0-9e08d6ad74f6}, !- Handle
  {b9f4154c-64ea-4159-aa26-b0696343135e}, !- HVAC Component
  {c770ca0a-8632-4192-be1a-c5720d454053}; !- Port 1

OS:PortList,
  {42a07636-ddb4-4244-970e-daad65747cb8}, !- Handle
  {b9f4154c-64ea-4159-aa26-b0696343135e}; !- HVAC Component

OS:PortList,
  {44760e69-cd46-48ad-9744-d90442c73d25}, !- Handle
  {b9f4154c-64ea-4159-aa26-b0696343135e}, !- HVAC Component
  {59b22792-aa56-4f6c-8668-9295440323de}; !- Port 1

OS:Sizing:Zone,
  {cf2a31a0-17a3-41e1-abac-ea9d2f2d51f1}, !- Handle
  {b9f4154c-64ea-4159-aa26-b0696343135e}, !- Zone or ZoneList Name
  SupplyAirTemperature,                   !- Zone Cooling Design Supply Air Temperature Input Method
  14,                                     !- Zone Cooling Design Supply Air Temperature {C}
  11.11,                                  !- Zone Cooling Design Supply Air Temperature Difference {deltaC}
  SupplyAirTemperature,                   !- Zone Heating Design Supply Air Temperature Input Method
  40,                                     !- Zone Heating Design Supply Air Temperature {C}
  11.11,                                  !- Zone Heating Design Supply Air Temperature Difference {deltaC}
  0.0085,                                 !- Zone Cooling Design Supply Air Humidity Ratio {kg-H2O/kg-air}
  0.008,                                  !- Zone Heating Design Supply Air Humidity Ratio {kg-H2O/kg-air}
  ,                                       !- Zone Heating Sizing Factor
  ,                                       !- Zone Cooling Sizing Factor
  DesignDay,                              !- Cooling Design Air Flow Method
  ,                                       !- Cooling Design Air Flow Rate {m3/s}
  ,                                       !- Cooling Minimum Air Flow per Zone Floor Area {m3/s-m2}
  ,                                       !- Cooling Minimum Air Flow {m3/s}
  ,                                       !- Cooling Minimum Air Flow Fraction
  DesignDay,                              !- Heating Design Air Flow Method
  ,                                       !- Heating Design Air Flow Rate {m3/s}
  ,                                       !- Heating Maximum Air Flow per Zone Floor Area {m3/s-m2}
  ,                                       !- Heating Maximum Air Flow {m3/s}
  ,                                       !- Heating Maximum Air Flow Fraction
  No,                                     !- Account for Dedicated Outdoor Air System
  NeutralSupplyAir,                       !- Dedicated Outdoor Air System Control Strategy
  autosize,                               !- Dedicated Outdoor Air Low Setpoint Temperature for Design {C}
  autosize,                               !- Dedicated Outdoor Air High Setpoint Temperature for Design {C}
  Sensible Load Only No Latent Load,      !- Zone Load Sizing Method
  HumidityRatioDifference,                !- Zone Latent Cooling Design Supply Air Humidity Ratio Input Method
  ,                                       !- Zone Dehumidification Design Supply Air Humidity Ratio {kgWater/kgDryAir}
  0.005,                                  !- Zone Cooling Design Supply Air Humidity Ratio Difference {kgWater/kgDryAir}
  HumidityRatioDifference,                !- Zone Latent Heating Design Supply Air Humidity Ratio Input Method
  ,                                       !- Zone Humidification Design Supply Air Humidity Ratio {kgWater/kgDryAir}
  0.005,                                  !- Zone Humidification Design Supply Air Humidity Ratio Difference {kgWater/kgDryAir}
  ,                                       !- Zone Humidistat Dehumidification Set Point Schedule Name
  ,                                       !- Zone Humidistat Humidification Set Point Schedule Name
  ,                                       !- Design Zone Air Distribution Effectiveness in Cooling Mode
  ,                                       !- Design Zone Air Distribution Effectiveness in Heating Mode
  ,                                       !- Design Zone Secondary Recirculation Fraction {dimensionless}
  ,                                       !- Design Minimum Zone Ventilation Efficiency {dimensionless}
  Coincident;                             !- Sizing Option

OS:ZoneHVAC:EquipmentList,
  {fb3e02a3-e827-4991-bf11-7c6f9eebaadf}, !- Handle
  Zone HVAC Equipment List 1,             !- Name
  {b9f4154c-64ea-4159-aa26-b0696343135e}, !- Thermal Zone
  ,                                       !- Load Distribution Scheme
  {16a84508-490a-4d51-8d48-f577e42122bb}, !- Zone Equipment 1
  1,                                      !- Zone Equipment Cooling Sequence 1
  1,                                      !- Zone Equipment Heating or No-Load Sequence 1
  {5b2f3e33-cddd-4b24-be0d-52b0401b993c}, !- Zone Equipment Sequential Cooling Fraction Schedule Name 1
  {a7580776-70b2-4eb2-ae8c-76b897343b0b}; !- Zone Equipment Sequential Heating Fraction Schedule Name 1

OS:AdditionalProperties,
  {2b5a123c-a431-4ad9-af34-8df0deae88ba}, !- Handle
  {b9f4154c-64ea-4159-aa26-b0696343135e}, !- Object Name
  ObjectType,                             !- Feature Name 1
  String,                                 !- Feature Data Type 1
  conditioned space;                      !- Feature Value 1

OS:Space,
  {fa2a1969-c6e8-4a23-952f-ab83e2073ae7}, !- Handle
  conditioned space 1,                    !- Name
  ,                                       !- Space Type Name
  ,                                       !- Default Construction Set Name
  ,                                       !- Default Schedule Set Name
  ,                                       !- Direction of Relative North {deg}
  ,                                       !- X Origin {m}
  ,                                       !- Y Origin {m}
  ,                                       !- Z Origin {m}
  ,                                       !- Building Story Name
  {b9f4154c-64ea-4159-aa26-b0696343135e}, !- Thermal Zone Name
  ,                                       !- Part of Total Floor Area
  ,                                       !- Design Specification Outdoor Air Object Name
  ,                                       !- Building Unit Name
  692.06373070848;                        !- Volume {m3}

OS:Schedule:Ruleset,
  {4d518dbd-c77f-48aa-a809-03416b105b63}, !- Handle
  heating setpoint,                       !- Name
  {8537ffb1-8faa-4b62-b673-7e956cdd2e88}, !- Schedule Type Limits Name
  {6bfaa304-cb5f-498f-865e-b2088b769c24}; !- Default Day Schedule Name

OS:Schedule:Day,
  {6bfaa304-cb5f-498f-865e-b2088b769c24}, !- Handle
  heating setpoint default day,           !- Name
  {8537ffb1-8faa-4b62-b673-7e956cdd2e88}, !- Schedule Type Limits Name
  ,                                       !- Interpolate to Timestep
  24,                                     !- Hour 1
  0,                                      !- Minute 1
  0;                                      !- Value Until Time 1

OS:Schedule:Rule,
  {ffd523a6-0db2-42ea-a36b-ff7b41bc4db8}, !- Handle
  heating setpoint allday rule,           !- Name
  {4d518dbd-c77f-48aa-a809-03416b105b63}, !- Schedule Ruleset Name
  0,                                      !- Rule Order
  {0b9e5fde-f101-49ec-9895-c4e6b624614b}, !- Day Schedule Name
  Yes,                                    !- Apply Sunday
  Yes,                                    !- Apply Monday
  Yes,                                    !- Apply Tuesday
  Yes,                                    !- Apply Wednesday
  Yes,                                    !- Apply Thursday
  Yes,                                    !- Apply Friday
  Yes,                                    !- Apply Saturday
  DateRange,                              !- Date Specification Type
  1,                                      !- Start Month
  1,                                      !- Start Day
  12,                                     !- End Month
  31;                                     !- End Day

OS:Schedule:Day,
  {0b9e5fde-f101-49ec-9895-c4e6b624614b}, !- Handle
  heating setpoint day,                   !- Name
  {8537ffb1-8faa-4b62-b673-7e956cdd2e88}, !- Schedule Type Limits Name
  ,                                       !- Interpolate to Timestep
  24,                                     !- Hour 1
  0,                                      !- Minute 1
  20;                                     !- Value Until Time 1

OS:Schedule:Ruleset,
  {b9947e4c-cc01-418e-8c5d-13cd4eff71f5}, !- Handle
  cooling setpoint,                       !- Name
  {8537ffb1-8faa-4b62-b673-7e956cdd2e88}, !- Schedule Type Limits Name
  {b2d53ddc-c31d-46c4-abfb-4f87072b1a45}; !- Default Day Schedule Name

OS:Schedule:Day,
  {b2d53ddc-c31d-46c4-abfb-4f87072b1a45}, !- Handle
  cooling setpoint default day,           !- Name
  {8537ffb1-8faa-4b62-b673-7e956cdd2e88}, !- Schedule Type Limits Name
  ,                                       !- Interpolate to Timestep
  24,                                     !- Hour 1
  0,                                      !- Minute 1
  0;                                      !- Value Until Time 1

OS:Schedule:Rule,
  {dcadc488-8e7b-4efe-b6ba-bd110829017d}, !- Handle
  cooling setpoint allday rule,           !- Name
  {b9947e4c-cc01-418e-8c5d-13cd4eff71f5}, !- Schedule Ruleset Name
  0,                                      !- Rule Order
  {37ca7bd6-a121-4a50-9a90-4bebb974b121}, !- Day Schedule Name
  Yes,                                    !- Apply Sunday
  Yes,                                    !- Apply Monday
  Yes,                                    !- Apply Tuesday
  Yes,                                    !- Apply Wednesday
  Yes,                                    !- Apply Thursday
  Yes,                                    !- Apply Friday
  Yes,                                    !- Apply Saturday
  DateRange,                              !- Date Specification Type
  1,                                      !- Start Month
  1,                                      !- Start Day
  12,                                     !- End Month
  31;                                     !- End Day

OS:Schedule:Day,
  {37ca7bd6-a121-4a50-9a90-4bebb974b121}, !- Handle
  cooling setpoint day,                   !- Name
  {8537ffb1-8faa-4b62-b673-7e956cdd2e88}, !- Schedule Type Limits Name
  ,                                       !- Interpolate to Timestep
  24,                                     !- Hour 1
  0,                                      !- Minute 1
  25.5555555555556;                       !- Value Until Time 1

OS:ThermostatSetpoint:DualSetpoint,
  {887ee5e5-19e6-4690-b3b2-8254905ecf34}, !- Handle
  conditioned space temperature setpoint, !- Name
  {4d518dbd-c77f-48aa-a809-03416b105b63}, !- Heating Setpoint Temperature Schedule Name
  {b9947e4c-cc01-418e-8c5d-13cd4eff71f5}, !- Cooling Setpoint Temperature Schedule Name
  0;                                      !- Temperature Difference Between Cutout And Setpoint {deltaC}

OS:ScheduleTypeLimits,
  {8537ffb1-8faa-4b62-b673-7e956cdd2e88}, !- Handle
  Temperature,                            !- Name
  ,                                       !- Lower Limit Value
  ,                                       !- Upper Limit Value
  Continuous,                             !- Numeric Type
  Temperature;                            !- Unit Type

OS:Surface,
  {e87c6c2f-401b-4560-a530-48d1b8ec01e9}, !- Handle
  Roof1,                                  !- Name
  RoofCeiling,                            !- Surface Type
  {6a166062-1fa1-431c-99a1-abbb2f35b938}, !- Construction Name
  {6bf0c7ac-ef32-479d-b69f-5d6c88a1a5db}, !- Space Name
  Outdoors,                               !- Outside Boundary Condition
  ,                                       !- Outside Boundary Condition Object
  SunExposed,                             !- Sun Exposure
  WindExposed,                            !- Wind Exposure
  ,                                       !- View Factor to Ground
  ,                                       !- Number of Vertices
  -26.9347048849634, 58.0557891618865, 2.4384, !- X,Y,Z Vertex 1 {m}
  -26.9347048849634, 46.7895631136661, 8.0715130241102, !- X,Y,Z Vertex 2 {m}
  -14.3386812381136, 46.7895631136661, 8.0715130241102, !- X,Y,Z Vertex 3 {m}
  -14.3386812381136, 58.0557891618865, 2.4384; !- X,Y,Z Vertex 4 {m}

OS:AdditionalProperties,
  {203eae86-2c8f-4787-a42d-5adabe09b95e}, !- Handle
  {e87c6c2f-401b-4560-a530-48d1b8ec01e9}, !- Object Name
  Length,                                 !- Feature Name 1
  Double,                                 !- Feature Data Type 1
  41.325536899113608,                     !- Feature Value 1
  Width,                                  !- Feature Name 2
  Double,                                 !- Feature Data Type 2
  41.325536899113601,                     !- Feature Value 2
  Azimuth,                                !- Feature Name 3
  Integer,                                !- Feature Data Type 3
  0,                                      !- Feature Value 3
  Tilt,                                   !- Feature Name 4
  Double,                                 !- Feature Data Type 4
  0.5,                                    !- Feature Value 4
  SurfaceType,                            !- Feature Name 5
  String,                                 !- Feature Data Type 5
  Roof;                                   !- Feature Value 5

OS:ThermalZone,
  {ce208526-eae1-4792-9c4f-4d937711a4fc}, !- Handle
  attic - vented,                         !- Name
  1,                                      !- Multiplier
  ,                                       !- Ceiling Height {m}
  356.389957095237,                       !- Volume {m3}
  ,                                       !- Floor Area {m2}
  ,                                       !- Zone Inside Convection Algorithm
  ,                                       !- Zone Outside Convection Algorithm
  ,                                       !- Zone Conditioning Equipment List Name
  {890f8587-f74f-4ca3-a6b2-a0f9b2f32ff9}, !- Zone Air Inlet Port List
  {6d76c399-46d0-4142-85aa-6ad5f7a4542f}, !- Zone Air Exhaust Port List
  {ab5b6a05-fa05-4878-815b-1b1865a720c4}, !- Zone Air Node Name
  {636565a6-e9ba-4973-8d4f-6a55b7a0f79b}, !- Zone Return Air Port List
  ,                                       !- Primary Daylighting Control Name
  ,                                       !- Fraction of Zone Controlled by Primary Daylighting Control
  ,                                       !- Secondary Daylighting Control Name
  ,                                       !- Fraction of Zone Controlled by Secondary Daylighting Control
  ,                                       !- Illuminance Map Name
  ,                                       !- Group Rendering Name
  ,                                       !- Thermostat Name
  No;                                     !- Use Ideal Air Loads

OS:Node,
  {55cd88d0-2637-46e2-9cad-8293c6ce04c5}, !- Handle
  Node 2,                                 !- Name
  {ab5b6a05-fa05-4878-815b-1b1865a720c4}, !- Inlet Port
  ;                                       !- Outlet Port

OS:Connection,
  {ab5b6a05-fa05-4878-815b-1b1865a720c4}, !- Handle
  {ce208526-eae1-4792-9c4f-4d937711a4fc}, !- Source Object
  11,                                     !- Outlet Port
  {55cd88d0-2637-46e2-9cad-8293c6ce04c5}, !- Target Object
  2;                                      !- Inlet Port

OS:PortList,
  {890f8587-f74f-4ca3-a6b2-a0f9b2f32ff9}, !- Handle
  {ce208526-eae1-4792-9c4f-4d937711a4fc}; !- HVAC Component

OS:PortList,
  {6d76c399-46d0-4142-85aa-6ad5f7a4542f}, !- Handle
  {ce208526-eae1-4792-9c4f-4d937711a4fc}; !- HVAC Component

OS:PortList,
  {636565a6-e9ba-4973-8d4f-6a55b7a0f79b}, !- Handle
  {ce208526-eae1-4792-9c4f-4d937711a4fc}; !- HVAC Component

OS:Sizing:Zone,
  {318c0fa7-5fdd-457a-8ea9-46e469b12cb5}, !- Handle
  {ce208526-eae1-4792-9c4f-4d937711a4fc}, !- Zone or ZoneList Name
  SupplyAirTemperature,                   !- Zone Cooling Design Supply Air Temperature Input Method
  14,                                     !- Zone Cooling Design Supply Air Temperature {C}
  11.11,                                  !- Zone Cooling Design Supply Air Temperature Difference {deltaC}
  SupplyAirTemperature,                   !- Zone Heating Design Supply Air Temperature Input Method
  40,                                     !- Zone Heating Design Supply Air Temperature {C}
  11.11,                                  !- Zone Heating Design Supply Air Temperature Difference {deltaC}
  0.0085,                                 !- Zone Cooling Design Supply Air Humidity Ratio {kg-H2O/kg-air}
  0.008,                                  !- Zone Heating Design Supply Air Humidity Ratio {kg-H2O/kg-air}
  ,                                       !- Zone Heating Sizing Factor
  ,                                       !- Zone Cooling Sizing Factor
  DesignDay,                              !- Cooling Design Air Flow Method
  ,                                       !- Cooling Design Air Flow Rate {m3/s}
  ,                                       !- Cooling Minimum Air Flow per Zone Floor Area {m3/s-m2}
  ,                                       !- Cooling Minimum Air Flow {m3/s}
  ,                                       !- Cooling Minimum Air Flow Fraction
  DesignDay,                              !- Heating Design Air Flow Method
  ,                                       !- Heating Design Air Flow Rate {m3/s}
  ,                                       !- Heating Maximum Air Flow per Zone Floor Area {m3/s-m2}
  ,                                       !- Heating Maximum Air Flow {m3/s}
  ,                                       !- Heating Maximum Air Flow Fraction
  No,                                     !- Account for Dedicated Outdoor Air System
  NeutralSupplyAir,                       !- Dedicated Outdoor Air System Control Strategy
  autosize,                               !- Dedicated Outdoor Air Low Setpoint Temperature for Design {C}
  autosize,                               !- Dedicated Outdoor Air High Setpoint Temperature for Design {C}
  Sensible Load Only No Latent Load,      !- Zone Load Sizing Method
  HumidityRatioDifference,                !- Zone Latent Cooling Design Supply Air Humidity Ratio Input Method
  ,                                       !- Zone Dehumidification Design Supply Air Humidity Ratio {kgWater/kgDryAir}
  0.005,                                  !- Zone Cooling Design Supply Air Humidity Ratio Difference {kgWater/kgDryAir}
  HumidityRatioDifference,                !- Zone Latent Heating Design Supply Air Humidity Ratio Input Method
  ,                                       !- Zone Humidification Design Supply Air Humidity Ratio {kgWater/kgDryAir}
  0.005,                                  !- Zone Humidification Design Supply Air Humidity Ratio Difference {kgWater/kgDryAir}
  ,                                       !- Zone Humidistat Dehumidification Set Point Schedule Name
  ,                                       !- Zone Humidistat Humidification Set Point Schedule Name
  ,                                       !- Design Zone Air Distribution Effectiveness in Cooling Mode
  ,                                       !- Design Zone Air Distribution Effectiveness in Heating Mode
  ,                                       !- Design Zone Secondary Recirculation Fraction {dimensionless}
  ,                                       !- Design Minimum Zone Ventilation Efficiency {dimensionless}
  Coincident;                             !- Sizing Option

OS:ZoneHVAC:EquipmentList,
  {99562d72-2e12-4460-87e9-55c91b80d478}, !- Handle
  Zone HVAC Equipment List 2,             !- Name
  {ce208526-eae1-4792-9c4f-4d937711a4fc}; !- Thermal Zone

OS:AdditionalProperties,
  {edc26ee9-7ed3-4dfe-8e89-b94fe60fa621}, !- Handle
  {ce208526-eae1-4792-9c4f-4d937711a4fc}, !- Object Name
  ObjectType,                             !- Feature Name 1
  String,                                 !- Feature Data Type 1
  attic - vented;                         !- Feature Value 1

OS:Space,
  {6bf0c7ac-ef32-479d-b69f-5d6c88a1a5db}, !- Handle
  attic - vented 1,                       !- Name
  ,                                       !- Space Type Name
  ,                                       !- Default Construction Set Name
  ,                                       !- Default Schedule Set Name
  ,                                       !- Direction of Relative North {deg}
  ,                                       !- X Origin {m}
  ,                                       !- Y Origin {m}
  ,                                       !- Z Origin {m}
  ,                                       !- Building Story Name
  {ce208526-eae1-4792-9c4f-4d937711a4fc}, !- Thermal Zone Name
  ,                                       !- Part of Total Floor Area
  ,                                       !- Design Specification Outdoor Air Object Name
  ,                                       !- Building Unit Name
  356.389957095237;                       !- Volume {m3}

OS:Material,
  {c0dfce75-00c0-49bb-9f47-a2d6f603d7b1}, !- Handle
  asphalt or fiberglass shingles,         !- Name
  Rough,                                  !- Roughness
  0.00635,                                !- Thickness {m}
  0.162714,                               !- Conductivity {W/m-K}
  1121.4,                                 !- Density {kg/m3}
  1465.45,                                !- Specific Heat {J/kg-K}
  0.9,                                    !- Thermal Absorptance
  0.85,                                   !- Solar Absorptance