
OS:Version,
  {f9395c03-b806-46db-8b98-b0feb09c586f}, !- Handle
  3.10.0;                                 !- Version Identifier

OS:SimulationControl,
  {be3117a2-e502-4adf-a885-7c3eaf0a2bc6}, !- Handle
  ,                                       !- Do Zone Sizing Calculation
  ,                                       !- Do System Sizing Calculation
  ,                                       !- Do Plant Sizing Calculation
  No;                                     !- Run Simulation for Sizing Periods

OS:Timestep,
  {6c0c93c7-6d48-4af5-bf0a-32a67dbb93d7}, !- Handle
  1;                                      !- Number of Timesteps per Hour

OS:ShadowCalculation,
  {91dde914-68a3-4013-bc91-643566142ee5}, !- Handle
  PolygonClipping,                        !- Shading Calculation Method
  ,                                       !- Shading Calculation Update Frequency Method
  20,                                     !- Shading Calculation Update Frequency
  200,                                    !- Maximum Figures in Shadow Overlap Calculations
  ,                                       !- Polygon Clipping Algorithm
  512,                                    !- Pixel Counting Resolution
  ,                                       !- Sky Diffuse Modeling Algorithm
  No,                                     !- Output External Shading Calculation Results
  No,                                     !- Disable Self-Shading Within Shading Zone Groups
  No;                                     !- Disable Self-Shading From Shading Zone Groups to Other Zones

OS:SurfaceConvectionAlgorithm:Outside,
  {cb39b58d-90fa-44e6-93c0-60fb2c00b64e}, !- Handle
  DOE-2;                                  !- Algorithm

OS:SurfaceConvectionAlgorithm:Inside,
  {dbaec1c9-2bda-45d4-9171-284e9adee001}, !- Handle
  TARP;                                   !- Algorithm

OS:ZoneCapacitanceMultiplier:ResearchSpecial,
  {e55461f9-4268-4b25-83d6-da7d37dab09b}, !- Handle
  7,                                      !- Temperature Capacity Multiplier
  15,                                     !- Humidity Capacity Multiplier
  ;                                       !- Carbon Dioxide Capacity Multiplier

OS:ConvergenceLimits,
  {3163183e-a7d0-4422-baf6-a5a90f889d1a}, !- Handle
  0;                                      !- Minimum System Timestep {minutes}

OS:RunPeriod,
  {f7c5c087-5afc-4923-9567-db64e033bdaf}, !- Handle
  Run Period 1,                           !- Name
  1,                                      !- Begin Month
  1,                                      !- Begin Day of Month
  12,                                     !- End Month
  31,                                     !- End Day of Month
  ,                                       !- Use Weather File Holidays and Special Days
  ,                                       !- Use Weather File Daylight Saving Period
  ,                                       !- Apply Weekend Holiday Rule
  ,                                       !- Use Weather File Rain Indicators
  ,                                       !- Use Weather File Snow Indicators
  ;                                       !- Number of Times Runperiod to be Repeated

OS:PerformancePrecisionTradeoffs,
  {194fdabb-144e-4e33-9eb1-7045367d2577}, !- Handle
  ,                                       !- Use Coil Direct Solutions
  CarrollMRT;                             !- Zone Radiant Exchange Algorithm

OS:WeatherFile,
  {c64359f8-8f86-466e-9c4c-a494e2162980}, !- Handle
  Buffalo Niagara Intl Ap,                !- City
  NY,                                     !- State Province Region
  USA,                                    !- Country
  TMY3,                                   !- Data Source
  725280,                                 !- WMO Number
  42.93,                                  !- Latitude {deg}
  -78.73,                                 !- Longitude {deg}
  -5,                                     !- Time Zone {hr}
  215,                                    !- Elevation {m}
  /Users/nmoore/github/urbanopt-example-geojson-project/example_project/weather/USA_NY_Buffalo-Greater.Buffalo.Intl.AP.725280_TMY3.epw, !- Url
  6B50E0FF,                               !- Checksum
  ,                                       !- Start Date Actual Year
  Sunday;                                 !- Start Day of Week

OS:YearDescription,
  {68168594-c952-4571-ab5a-6a562bcf0e76}, !- Handle
  2007,                                   !- Calendar Year
  ,                                       !- Day of Week for Start Day
  ;                                       !- Is Leap Year

OS:Site,
  {a480cf69-7a3d-4c85-881a-ca11baac9728}, !- Handle
  Buffalo Niagara Intl Ap_NY,             !- Name
  42.93,                                  !- Latitude {deg}
  -78.73,                                 !- Longitude {deg}
  -5,                                     !- Time Zone {hr}
  215,                                    !- Elevation {m}
  Suburbs,                                !- Terrain
  Yes;                                    !- Keep Site Location Information

OS:RunPeriodControl:DaylightSavingTime,
  {4c339178-daea-41d1-a49e-0ab89a9550cc}, !- Handle
  Mar 12,                                 !- Start Date
  Nov 5;                                  !- End Date

OS:Site:GroundTemperature:Shallow,
  {f7bc9991-d9cc-4568-82fd-8035ca0b7b08}, !- Handle
  4.30207395723828,                       !- January Surface Ground Temperature {C}
  2.29327249652502,                       !- February Surface Ground Temperature {C}
  2.13240047156047,                       !- March Surface Ground Temperature {C}
  3.08567940719286,                       !- April Surface Ground Temperature {C}
  6.91256312497526,                       !- May Surface Ground Temperature {C}
  10.7216195949507,                       !- June Surface Ground Temperature {C}
  14.0238679822574,                       !- July Surface Ground Temperature {C}
  16.1157611184724,                       !- August Surface Ground Temperature {C}
  16.2934789303462,                       !- September Surface Ground Temperature {C}
  14.5920754632847,                       !- October Surface Ground Temperature {C}
  11.374036348653,                        !- November Surface Ground Temperature {C}
  7.68182621661674;                       !- December Surface Ground Temperature {C}

OS:ThermalZone,
  {9e5deca0-1040-4e0c-8407-b3b0e2c62d43}, !- Handle
  conditioned space,                      !- Name
  1,                                      !- Multiplier
  ,                                       !- Ceiling Height {m}
  692.06373070848,                        !- Volume {m3}
  ,                                       !- Floor Area {m2}
  ,                                       !- Zone Inside Convection Algorithm
  ,                                       !- Zone Outside Convection Algorithm
  ,                                       !- Zone Conditioning Equipment List Name
  {4942f4e7-2cfb-4f0b-b4af-7c033e57e021}, !- Zone Air Inlet Port List
  {a835f1ff-eca5-4d6f-b332-0c82661f360f}, !- Zone Air Exhaust Port List
  {86ea6c15-e990-4833-8bbc-b342f71c00db}, !- Zone Air Node Name
  {bfa9d55b-bb2d-4ed5-90bd-b28a100f067a}, !- Zone Return Air Port List
  ,                                       !- Primary Daylighting Control Name
  ,                                       !- Fraction of Zone Controlled by Primary Daylighting Control
  ,                                       !- Secondary Daylighting Control Name
  ,                                       !- Fraction of Zone Controlled by Secondary Daylighting Control
  ,                                       !- Illuminance Map Name
  ,                                       !- Group Rendering Name
  {dd34201f-3537-4054-8789-fb2ffd13f823}, !- Thermostat Name
  No;                                     !- Use Ideal Air Loads

OS:Node,
  {69e40cb4-233b-4fe6-9c2e-fe978891707a}, !- Handle
  Node 1,                                 !- Name
  {86ea6c15-e990-4833-8bbc-b342f71c00db}, !- Inlet Port
  ;                                       !- Outlet Port

OS:Connection,
  {86ea6c15-e990-4833-8bbc-b342f71c00db}, !- Handle
  {9e5deca0-1040-4e0c-8407-b3b0e2c62d43}, !- Source Object
  11,                                     !- Outlet Port
  {69e40cb4-233b-4fe6-9c2e-fe978891707a}, !- Target Object
  2;                                      !- Inlet Port

OS:PortList,
  {4942f4e7-2cfb-4f0b-b4af-7c033e57e021}, !- Handle
  {9e5deca0-1040-4e0c-8407-b3b0e2c62d43}, !- HVAC Component
  {0fe16127-7b9e-459d-a7b4-448141361944}; !- Port 1

OS:PortList,
  {a835f1ff-eca5-4d6f-b332-0c82661f360f}, !- Handle
  {9e5deca0-1040-4e0c-8407-b3b0e2c62d43}; !- HVAC Component

OS:PortList,
  {bfa9d55b-bb2d-4ed5-90bd-b28a100f067a}, !- Handle
  {9e5deca0-1040-4e0c-8407-b3b0e2c62d43}, !- HVAC Component
  {6640e754-8a3c-400c-880f-081afdef017c}; !- Port 1

OS:Sizing:Zone,
  {2d920de6-110e-4497-94b9-1142a7fd6626}, !- Handle
  {9e5deca0-1040-4e0c-8407-b3b0e2c62d43}, !- Zone or ZoneList Name
  SupplyAirTemperature,                   !- Zone Cooling Design Supply Air Temperature Input Method
  14,                                     !- Zone Cooling Design Supply Air Temperature {C}
  11.11,                                  !- Zone Cooling Design Supply Air Temperature Difference {deltaC}
  SupplyAirTemperature,                   !- Zone Heating Design Supply Air Temperature Input Method
  40,                                     !- Zone Heating Design Supply Air Temperature {C}
  11.11,                                  !- Zone Heating Design Supply Air Temperature Difference {deltaC}
  0.0085,                                 !- Zone Cooling Design Supply Air Humidity Ratio {kg-H2O/kg-air}
  0.008,                                  !- Zone Heating Design Supply Air Humidity Ratio {kg-H2O/kg-air}
  ,                                       !- Zone Heating Sizing Factor
  ,                                       !- Zone Cooling Sizing Factor
  DesignDay,                              !- Cooling Design Air Flow Method
  ,                                       !- Cooling Design Air Flow Rate {m3/s}
  ,                                       !- Cooling Minimum Air Flow per Zone Floor Area {m3/s-m2}
  ,                                       !- Cooling Minimum Air Flow {m3/s}
  ,                                       !- Cooling Minimum Air Flow Fraction
  DesignDay,                              !- Heating Design Air Flow Method
  ,                                       !- Heating Design Air Flow Rate {m3/s}
  ,                                       !- Heating Maximum Air Flow per Zone Floor Area {m3/s-m2}
  ,                                       !- Heating Maximum Air Flow {m3/s}
  ,                                       !- Heating Maximum Air Flow Fraction
  No,                                     !- Account for Dedicated Outdoor Air System
  NeutralSupplyAir,                       !- Dedicated Outdoor Air System Control Strategy
  autosize,                               !- Dedicated Outdoor Air Low Setpoint Temperature for Design {C}
  autosize,                               !- Dedicated Outdoor Air High Setpoint Temperature for Design {C}
  Sensible Load Only No Latent Load,      !- Zone Load Sizing Method
  HumidityRatioDifference,                !- Zone Latent Cooling Design Supply Air Humidity Ratio Input Method
  ,                                       !- Zone Dehumidification Design Supply Air Humidity Ratio {kgWater/kgDryAir}
  0.005,                                  !- Zone Cooling Design Supply Air Humidity Ratio Difference {kgWater/kgDryAir}
  HumidityRatioDifference,                !- Zone Latent Heating Design Supply Air Humidity Ratio Input Method
  ,                                       !- Zone Humidification Design Supply Air Humidity Ratio {kgWater/kgDryAir}
  0.005,                                  !- Zone Humidification Design Supply Air Humidity Ratio Difference {kgWater/kgDryAir}
  ,                                       !- Zone Humidistat Dehumidification Set Point Schedule Name
  ,                                       !- Zone Humidistat Humidification Set Point Schedule Name
  ,                                       !- Design Zone Air Distribution Effectiveness in Cooling Mode
  ,                                       !- Design Zone Air Distribution Effectiveness in Heating Mode
  ,                                       !- Design Zone Secondary Recirculation Fraction {dimensionless}
  ,                                       !- Design Minimum Zone Ventilation Efficiency {dimensionless}
  Coincident;                             !- Sizing Option

OS:ZoneHVAC:EquipmentList,
  {8913d9ae-c233-4b88-bcf3-c91a5121a28f}, !- Handle
  Zone HVAC Equipment List 1,             !- Name
  {9e5deca0-1040-4e0c-8407-b3b0e2c62d43}, !- Thermal Zone
  ,                                       !- Load Distribution Scheme
  {1a4de61a-39f3-44f4-9398-382558911cc4}, !- Zone Equipment 1
  1,                                      !- Zone Equipment Cooling Sequence 1
  1,                                      !- Zone Equipment Heating or No-Load Sequence 1
  {fc060a0e-4aba-402b-bdc4-b68c10faa457}, !- Zone Equipment Sequential Cooling Fraction Schedule Name 1
  {ee0170e9-9fd6-4f8c-b8c9-34a5a5c86b1e}; !- Zone Equipment Sequential Heating Fraction Schedule Name 1

OS:AdditionalProperties,
  {c3feebc9-bf00-40a0-9e42-7bbb641fdb0b}, !- Handle
  {9e5deca0-1040-4e0c-8407-b3b0e2c62d43}, !- Object Name
  ObjectType,                             !- Feature Name 1
  String,                                 !- Feature Data Type 1
  conditioned space;                      !- Feature Value 1

OS:Space,
  {b9d61500-986b-4639-912b-13d93f77887b}, !- Handle
  conditioned space 1,                    !- Name
  ,                                       !- Space Type Name
  ,                                       !- Default Construction Set Name
  ,                                       !- Default Schedule Set Name
  ,                                       !- Direction of Relative North {deg}
  ,                                       !- X Origin {m}
  ,                                       !- Y Origin {m}
  ,                                       !- Z Origin {m}
  ,                                       !- Building Story Name
  {9e5deca0-1040-4e0c-8407-b3b0e2c62d43}, !- Thermal Zone Name
  ,                                       !- Part of Total Floor Area
  ,                                       !- Design Specification Outdoor Air Object Name
  ,                                       !- Building Unit Name
  692.06373070848;                        !- Volume {m3}

OS:Schedule:Ruleset,
  {de85932f-f0a6-4987-9308-5c71b69c0cf6}, !- Handle
  heating setpoint,                       !- Name
  {9dfeade1-cb46-46b7-b859-7e99bf8b9f4c}, !- Schedule Type Limits Name
  {6203eab7-a8de-422c-96b7-4d0b3979399d}; !- Default Day Schedule Name

OS:Schedule:Day,
  {6203eab7-a8de-422c-96b7-4d0b3979399d}, !- Handle
  heating setpoint default day,           !- Name
  {9dfeade1-cb46-46b7-b859-7e99bf8b9f4c}, !- Schedule Type Limits Name
  ,                                       !- Interpolate to Timestep
  24,                                     !- Hour 1
  0,                                      !- Minute 1
  0;                                      !- Value Until Time 1

OS:Schedule:Rule,
  {c81b8135-a11f-4000-8500-f6701ed2b383}, !- Handle
  heating setpoint allday rule,           !- Name
  {de85932f-f0a6-4987-9308-5c71b69c0cf6}, !- Schedule Ruleset Name
  0,                                      !- Rule Order
  {ca07be33-058b-460e-997b-b00c4539bb86}, !- Day Schedule Name
  Yes,                                    !- Apply Sunday
  Yes,                                    !- Apply Monday
  Yes,                                    !- Apply Tuesday
  Yes,                                    !- Apply Wednesday
  Yes,                                    !- Apply Thursday
  Yes,                                    !- Apply Friday
  Yes,                                    !- Apply Saturday
  DateRange,                              !- Date Specification Type
  1,                                      !- Start Month
  1,                                      !- Start Day
  12,                                     !- End Month
  31;                                     !- End Day

OS:Schedule:Day,
  {ca07be33-058b-460e-997b-b00c4539bb86}, !- Handle
  heating setpoint day,                   !- Name
  {9dfeade1-cb46-46b7-b859-7e99bf8b9f4c}, !- Schedule Type Limits Name
  ,                                       !- Interpolate to Timestep
  3,                                      !- Hour 1
  0,                                      !- Minute 1
  16.6666666666667,                       !- Value Until Time 1
  17,                                     !- Hour 2
  0,                                      !- Minute 2
  20,                                     !- Value Until Time 2
  18,                                     !- Hour 3
  0,                                      !- Minute 3
  18.6111111111111,                       !- Value Until Time 3
  24,                                     !- Hour 4
  0,                                      !- Minute 4
  16.6666666666667;                       !- Value Until Time 4

OS:Schedule:Ruleset,
  {05a67359-96c3-4fb0-a5be-5612e6df5bd5}, !- Handle
  cooling setpoint,                       !- Name
  {9dfeade1-cb46-46b7-b859-7e99bf8b9f4c}, !- Schedule Type Limits Name
  {31659cec-fd82-49b2-82a2-1b9155d6e21c}; !- Default Day Schedule Name

OS:Schedule:Day,
  {31659cec-fd82-49b2-82a2-1b9155d6e21c}, !- Handle
  cooling setpoint default day,           !- Name
  {9dfeade1-cb46-46b7-b859-7e99bf8b9f4c}, !- Schedule Type Limits Name
  ,                                       !- Interpolate to Timestep
  24,                                     !- Hour 1
  0,                                      !- Minute 1
  0;                                      !- Value Until Time 1

OS:Schedule:Rule,
  {6424401c-9638-4e56-b7a2-31ad921396d8}, !- Handle
  cooling setpoint allday rule,           !- Name
  {05a67359-96c3-4fb0-a5be-5612e6df5bd5}, !- Schedule Ruleset Name
  0,                                      !- Rule Order
  {61a12a70-4e9d-4fbb-be5e-f5355fb92a10}, !- Day Schedule Name
  Yes,                                    !- Apply Sunday
  Yes,                                    !- Apply Monday
  Yes,                                    !- Apply Tuesday
  Yes,                                    !- Apply Wednesday
  Yes,                                    !- Apply Thursday
  Yes,                                    !- Apply Friday
  Yes,                                    !- Apply Saturday
  DateRange,                              !- Date Specification Type
  1,                                      !- Start Month
  1,                                      !- Start Day
  12,                                     !- End Month
  31;                                     !- End Day

OS:Schedule:Day,
  {61a12a70-4e9d-4fbb-be5e-f5355fb92a10}, !- Handle
  cooling setpoint day,                   !- Name
  {9dfeade1-cb46-46b7-b859-7e99bf8b9f4c}, !- Schedule Type Limits Name
  ,                                       !- Interpolate to Timestep
  2,                                      !- Hour 1
  0,                                      !- Minute 1
  17.2222222222222,                       !- Value Until Time 1
  17,                                     !- Hour 2
  0,                                      !- Minute 2
  20,                                     !- Value Until Time 2
  18,                                     !- Hour 3
  0,                                      !- Minute 3
  18.6111111111111,                       !- Value Until Time 3
  24,                                     !- Hour 4
  0,                                      !- Minute 4
  17.2222222222222;                       !- Value Until Time 4

OS:ThermostatSetpoint:DualSetpoint,
  {dd34201f-3537-4054-8789-fb2ffd13f823}, !- Handle
  conditioned space temperature setpoint, !- Name
  {de85932f-f0a6-4987-9308-5c71b69c0cf6}, !- Heating Setpoint Temperature Schedule Name
  {05a67359-96c3-4fb0-a5be-5612e6df5bd5}, !- Cooling Setpoint Temperature Schedule Name
  0;                                      !- Temperature Difference Between Cutout And Setpoint {deltaC}

OS:ScheduleTypeLimits,
  {9dfeade1-cb46-46b7-b859-7e99bf8b9f4c}, !- Handle
  Temperature,                            !- Name
  ,                                       !- Lower Limit Value
  ,                                       !- Upper Limit Value
  Continuous,                             !- Numeric Type
  Temperature;                            !- Unit Type

OS:Surface,
  {87d5ccc2-4cf6-441f-9de5-511e737ceb42}, !- Handle
  Roof1,                                  !- Name
  RoofCeiling,                            !- Surface Type
  {d6662b6f-0033-4d4c-b6cc-de14d7644fef}, !- Construction Name
  {e5657ee6-4119-4468-a3c0-4df512ee8457}, !- Space Name
  Outdoors,                               !- Outside Boundary Condition
  ,                                       !- Outside Boundary Condition Object
  SunExposed,                             !- Sun Exposure
  WindExposed,                            !- Wind Exposure
  ,                                       !- View Factor to Ground
  ,                                       !- Number of Vertices
  43.9443505007693, 17.8744440359044, 5.1816, !- X,Y,Z Vertex 1 {m}
  35.9779256636921, 17.8744440359044, 9.16481241853858, !- X,Y,Z Vertex 2 {m}
  35.9779256636921, 8.96771029923076, 9.16481241853858, !- X,Y,Z Vertex 3 {m}
  43.9443505007692, 8.96771029923076, 5.1816; !- X,Y,Z Vertex 4 {m}

OS:AdditionalProperties,
  {d278e4c0-4d4b-43fd-af70-cafdb48ff193}, !- Handle
  {87d5ccc2-4cf6-441f-9de5-511e737ceb42}, !- Object Name
  Length,                                 !- Feature Name 1
  Double,                                 !- Feature Data Type 1
  29.221567377538118,                     !- Feature Value 1
  Width,                                  !- Feature Name 2
  Double,                                 !- Feature Data Type 2
  29.221567377538118,                     !- Feature Value 2
  Azimuth,                                !- Feature Name 3
  Integer,                                !- Feature Data Type 3
  90,                                     !- Feature Value 3
  Tilt,                                   !- Feature Name 4
  Double,                                 !- Feature Data Type 4
  0.5,                                    !- Feature Value 4
  SurfaceType,                            !- Feature Name 5
  String,                                 !- Feature Data Type 5
  Roof;                                   !- Feature Value 5

OS:ThermalZone,
  {6aabf683-3978-4e4a-8446-11056c3114c5}, !- Handle
  attic - vented,                         !- Name
  1,                                      !- Multiplier
  ,                                       !- Ceiling Height {m}
  163.269851578544,                       !- Volume {m3}
  ,                                       !- Floor Area {m2}
  ,                                       !- Zone Inside Convection Algorithm
  ,                                       !- Zone Outside Convection Algorithm
  ,                                       !- Zone Conditioning Equipment List Name
  {762fdf06-9688-43b9-a4e5-931cf0e62d1f}, !- Zone Air Inlet Port List
  {886cc59d-b010-4b50-aa5e-c96322b2c524}, !- Zone Air Exhaust Port List
  {8bf4d9e9-4dcc-4175-a582-75ea71be0fef}, !- Zone Air Node Name
  {4431f8ea-16c8-4f3b-98da-e3e7b170286f}, !- Zone Return Air Port List
  ,                                       !- Primary Daylighting Control Name
  ,                                       !- Fraction of Zone Controlled by Primary Daylighting Control
  ,                                       !- Secondary Daylighting Control Name
  ,                                       !- Fraction of Zone Controlled by Secondary Daylighting Control
  ,                                       !- Illuminance Map Name
  ,                                       !- Group Rendering Name
  ,                                       !- Thermostat Name
  No;                                     !- Use Ideal Air Loads

OS:Node,
  {7ee7a9e6-51df-4022-9bb2-dbea060f3318}, !- Handle
  Node 2,                                 !- Name
  {8bf4d9e9-4dcc-4175-a582-75ea71be0fef}, !- Inlet Port
  ;                                       !- Outlet Port

OS:Connection,
  {8bf4d9e9-4dcc-4175-a582-75ea71be0fef}, !- Handle
  {6aabf683-3978-4e4a-8446-11056c3114c5}, !- Source Object
  11,                                     !- Outlet Port
  {7ee7a9e6-51df-4022-9bb2-dbea060f3318}, !- Target Object
  2;                                      !- Inlet Port

OS:PortList,
  {762fdf06-9688-43b9-a4e5-931cf0e62d1f}, !- Handle
  {6aabf683-3978-4e4a-8446-11056c3114c5}; !- HVAC Component

OS:PortList,
  {886cc59d-b010-4b50-aa5e-c96322b2c524}, !- Handle
  {6aabf683-3978-4e4a-8446-11056c3114c5}; !- HVAC Component

OS:PortList,
  {4431f8ea-16c8-4f3b-98da-e3e7b170286f}, !- Handle
  {6aabf683-3978-4e4a-8446-11056c3114c5}; !- HVAC Component

OS:Sizing:Zone,
  {8f397ca7-5442-45f4-80cd-1a829c927f65}, !- Handle
  {6aabf683-3978-4e4a-8446-11056c3114c5}, !- Zone or ZoneList Name
  SupplyAirTemperature,                   !- Zone Cooling Design Supply Air Temperature Input Method
  14,                                     !- Zone Cooling Design Supply Air Temperature {C}
  11.11,                                  !- Zone Cooling Design Supply Air Temperature Difference {deltaC}
  SupplyAirTemperature,                   !- Zone Heating Design Supply Air Temperature Input Method
  40,                                     !- Zone Heating Design Supply Air Temperature {C}
  11.11,                                  !- Zone Heating Design Supply Air Temperature Difference {deltaC}
  0.0085,                                 !- Zone Cooling Design Supply Air Humidity Ratio {kg-H2O/kg-air}
  0.008,                                  !- Zone Heating Design Supply Air Humidity Ratio {kg-H2O/kg-air}
  ,                                       !- Zone Heating Sizing Factor
  ,                                       !- Zone Cooling Sizing Factor
  DesignDay,                              !- Cooling Design Air Flow Method
  ,                                       !- Cooling Design Air Flow Rate {m3/s}
  ,                                       !- Cooling Minimum Air Flow per Zone Floor Area {m3/s-m2}
  ,                                       !- Cooling Minimum Air Flow {m3/s}
  ,                                       !- Cooling Minimum Air Flow Fraction
  DesignDay,                              !- Heating Design Air Flow Method
  ,                                       !- Heating Design Air Flow Rate {m3/s}
  ,                                       !- Heating Maximum Air Flow per Zone Floor Area {m3/s-m2}
  ,                                       !- Heating Maximum Air Flow {m3/s}
  ,                                       !- Heating Maximum Air Flow Fraction
  No,                                     !- Account for Dedicated Outdoor Air System
  NeutralSupplyAir,                       !- Dedicated Outdoor Air System Control Strategy
  autosize,                               !- Dedicated Outdoor Air Low Setpoint Temperature for Design {C}
  autosize,                               !- Dedicated Outdoor Air High Setpoint Temperature for Design {C}
  Sensible Load Only No Latent Load,      !- Zone Load Sizing Method
  HumidityRatioDifference,                !- Zone Latent Cooling Design Supply Air Humidity Ratio Input Method
  ,                                       !- Zone Dehumidification Design Supply Air Humidity Ratio {kgWater/kgDryAir}
  0.005,                                  !- Zone Cooling Design Supply Air Humidity Ratio Difference {kgWater/kgDryAir}
  HumidityRatioDifference,                !- Zone Latent Heating Design Supply Air Humidity Ratio Input Method
  ,                                       !- Zone Humidification Design Supply Air Humidity Ratio {kgWater/kgDryAir}
  0.005,                                  !- Zone Humidification Design Supply Air Humidity Ratio Difference {kgWater/kgDryAir}
  ,                                       !- Zone Humidistat Dehumidification Set Point Schedule Name
  ,                                       !- Zone Humidistat Humidification Set Point Schedule Name
  ,                                       !- Design Zone Air Distribution Effectiveness in Cooling Mode
  ,                                       !- Design Zone Air Distribution Effectiveness in Heating Mode
  ,                                       !- Design Zone Secondary Recirculation Fraction {dimensionless}
  ,                                       !- Design Minimum Zone Ventilation Efficiency {dimensionless}
  Coincident;                             !- Sizing Option

OS:ZoneHVAC:EquipmentList,
  {f60927f5-b1d1-4f0b-ab0c-78465f5b1261}, !- Handle
  Zone HVAC Equipment List 2,             !- Name
  {6aabf683-3978-4e4a-8446-11056c3114c5}; !- Thermal Zone

OS:AdditionalProperties,
  {fe4cf309-b092-4ff9-938c-2a07a15ad19a}, !- Handle
  {6aabf683-3978-4e4a-8446-11056c3114c5}, !- Object Name
  ObjectType,                             !- Feature Name 1
  String,                                 !- Feature Data Type 1
  attic - vented;                         !- Feature Value 1

OS:Space,
  {e5657ee6-4119-4468-a3c0-4df512ee8457}, !- Handle
  attic - vented 1,                       !- Name
  ,                                       !- Space Type Name
  ,                                       !- Default Construction Set Name
  ,                                       !- Default Schedule Set Name
  ,                                       !- Direction of Relative North {deg}
  ,                                       !- X Origin {m}
  ,                                       !- Y Origin {m}