
OS:Version,
  {74321c58-1644-407b-a571-ddab7cd743fb}, !- Handle
  3.9.0;                                  !- Version Identifier

OS:SimulationControl,
  {040f1684-15a2-4ba9-862e-1a7d493f2edf}, !- Handle
  ,                                       !- Do Zone Sizing Calculation
  ,                                       !- Do System Sizing Calculation
  ,                                       !- Do Plant Sizing Calculation
  No;                                     !- Run Simulation for Sizing Periods

OS:Timestep,
  {00fae2d4-20ce-4ae5-96bc-a246181412a9}, !- Handle
  1;                                      !- Number of Timesteps per Hour

OS:ShadowCalculation,
  {ea840db1-1cbf-49c4-b7c9-2e9f003381f8}, !- Handle
  PolygonClipping,                        !- Shading Calculation Method
  ,                                       !- Shading Calculation Update Frequency Method
  20,                                     !- Shading Calculation Update Frequency
  200,                                    !- Maximum Figures in Shadow Overlap Calculations
  ,                                       !- Polygon Clipping Algorithm
  512,                                    !- Pixel Counting Resolution
  ,                                       !- Sky Diffuse Modeling Algorithm
  No,                                     !- Output External Shading Calculation Results
  No,                                     !- Disable Self-Shading Within Shading Zone Groups
  No;                                     !- Disable Self-Shading From Shading Zone Groups to Other Zones

OS:SurfaceConvectionAlgorithm:Outside,
  {84bf9aa8-241b-407a-bb69-906d901dd3ac}, !- Handle
  DOE-2;                                  !- Algorithm

OS:SurfaceConvectionAlgorithm:Inside,
  {35b145ae-8920-4d6f-9533-85ab4c585804}, !- Handle
  TARP;                                   !- Algorithm

OS:ZoneCapacitanceMultiplier:ResearchSpecial,
  {c8b355dd-5c6e-470e-85a3-2b7cf8a97e8f}, !- Handle
  7,                                      !- Temperature Capacity Multiplier
  15,                                     !- Humidity Capacity Multiplier
  ;                                       !- Carbon Dioxide Capacity Multiplier

OS:ConvergenceLimits,
  {d86f904d-cc9b-472c-99e3-66b33ba4e95d}, !- Handle
  0;                                      !- Minimum System Timestep {minutes}

OS:RunPeriod,
  {1adba56f-8c36-4706-b499-e825c5c972ea}, !- Handle
  Run Period 1,                           !- Name
  1,                                      !- Begin Month
  1,                                      !- Begin Day of Month
  12,                                     !- End Month
  31,                                     !- End Day of Month
  ,                                       !- Use Weather File Holidays and Special Days
  ,                                       !- Use Weather File Daylight Saving Period
  ,                                       !- Apply Weekend Holiday Rule
  ,                                       !- Use Weather File Rain Indicators
  ,                                       !- Use Weather File Snow Indicators
  ;                                       !- Number of Times Runperiod to be Repeated

OS:PerformancePrecisionTradeoffs,
  {077303fe-133d-4312-813a-51d08bb28618}, !- Handle
  ,                                       !- Use Coil Direct Solutions
  CarrollMRT;                             !- Zone Radiant Exchange Algorithm

OS:WeatherFile,
  {c6aaf675-9857-47c3-a5bc-ec60a3523b91}, !- Handle
  Buffalo Niagara Intl Ap,                !- City
  NY,                                     !- State Province Region
  USA,                                    !- Country
  TMY3,                                   !- Data Source
  725280,                                 !- WMO Number
  42.93,                                  !- Latitude {deg}
  -78.73,                                 !- Longitude {deg}
  -5,                                     !- Time Zone {hr}
  215,                                    !- Elevation {m}
  /Users/nmoore/github/urbanopt-example-geojson-project/example_project/weather/USA_NY_Buffalo-Greater.Buffalo.Intl.AP.725280_TMY3.epw, !- Url
  6B50E0FF,                               !- Checksum
  ,                                       !- Start Date Actual Year
  Sunday;                                 !- Start Day of Week

OS:YearDescription,
  {d7ca4772-9ea1-4e39-96cb-d13377a3107d}, !- Handle
  2007,                                   !- Calendar Year
  ,                                       !- Day of Week for Start Day
  ;                                       !- Is Leap Year

OS:Site,
  {96321a9c-a98e-41d0-8414-54bdee2b6776}, !- Handle
  Buffalo Niagara Intl Ap_NY,             !- Name
  42.93,                                  !- Latitude {deg}
  -78.73,                                 !- Longitude {deg}
  -5,                                     !- Time Zone {hr}
  215,                                    !- Elevation {m}
  Suburbs,                                !- Terrain
  Yes;                                    !- Keep Site Location Information

OS:RunPeriodControl:DaylightSavingTime,
  {e7640079-1579-4a18-ad99-3f77e1e100ab}, !- Handle
  Mar 12,                                 !- Start Date
  Nov 5;                                  !- End Date

OS:Site:GroundTemperature:Shallow,
  {906fb638-0ea3-4231-880f-796bbde838a0}, !- Handle
  4.30207395723828,                       !- January Surface Ground Temperature {C}
  2.29327249652502,                       !- February Surface Ground Temperature {C}
  2.13240047156047,                       !- March Surface Ground Temperature {C}
  3.08567940719286,                       !- April Surface Ground Temperature {C}
  6.91256312497526,                       !- May Surface Ground Temperature {C}
  10.7216195949507,                       !- June Surface Ground Temperature {C}
  14.0238679822574,                       !- July Surface Ground Temperature {C}
  16.1157611184724,                       !- August Surface Ground Temperature {C}
  16.2934789303462,                       !- September Surface Ground Temperature {C}
  14.5920754632847,                       !- October Surface Ground Temperature {C}
  11.374036348653,                        !- November Surface Ground Temperature {C}
  7.68182621661674;                       !- December Surface Ground Temperature {C}

OS:ThermalZone,
  {c4b74da0-382a-47ca-9657-097354bf0d40}, !- Handle
  conditioned space,                      !- Name
  1,                                      !- Multiplier
  ,                                       !- Ceiling Height {m}
  692.06373070848,                        !- Volume {m3}
  ,                                       !- Floor Area {m2}
  ,                                       !- Zone Inside Convection Algorithm
  ,                                       !- Zone Outside Convection Algorithm
  ,                                       !- Zone Conditioning Equipment List Name
  {4abf518e-5a73-4f0c-affd-dac673ba3ea7}, !- Zone Air Inlet Port List
  {fa4ce042-f056-44e4-8e96-b14c8e54bbe6}, !- Zone Air Exhaust Port List
  {3fbf95af-8c31-4aa9-8711-0a3bad97096c}, !- Zone Air Node Name
  {47dc419c-f72d-48b3-9a25-f0a66f1af5d7}, !- Zone Return Air Port List
  ,                                       !- Primary Daylighting Control Name
  ,                                       !- Fraction of Zone Controlled by Primary Daylighting Control
  ,                                       !- Secondary Daylighting Control Name
  ,                                       !- Fraction of Zone Controlled by Secondary Daylighting Control
  ,                                       !- Illuminance Map Name
  ,                                       !- Group Rendering Name
  {2ba55bf4-d00c-4a3f-a0fb-22b4d6e83524}, !- Thermostat Name
  No;                                     !- Use Ideal Air Loads

OS:Node,
  {eb2ef9ed-8496-47f2-9983-5f813f4228f5}, !- Handle
  Node 1,                                 !- Name
  {3fbf95af-8c31-4aa9-8711-0a3bad97096c}, !- Inlet Port
  ;                                       !- Outlet Port

OS:Connection,
  {3fbf95af-8c31-4aa9-8711-0a3bad97096c}, !- Handle
  {c4b74da0-382a-47ca-9657-097354bf0d40}, !- Source Object
  11,                                     !- Outlet Port
  {eb2ef9ed-8496-47f2-9983-5f813f4228f5}, !- Target Object
  2;                                      !- Inlet Port

OS:PortList,
  {4abf518e-5a73-4f0c-affd-dac673ba3ea7}, !- Handle
  {c4b74da0-382a-47ca-9657-097354bf0d40}, !- HVAC Component
  {c3dffe01-6bca-4ac5-b172-8b03fd03dec4}, !- Port 1
  {723c4ed0-835a-4d0e-8c10-82ad72103113}; !- Port 2

OS:PortList,
  {fa4ce042-f056-44e4-8e96-b14c8e54bbe6}, !- Handle
  {c4b74da0-382a-47ca-9657-097354bf0d40}, !- HVAC Component
  {4b019341-28ac-4cae-a1ae-c12f2879c08b}; !- Port 1

OS:PortList,
  {47dc419c-f72d-48b3-9a25-f0a66f1af5d7}, !- Handle
  {c4b74da0-382a-47ca-9657-097354bf0d40}, !- HVAC Component
  {98d08b1b-2465-4fbf-80ef-5d3d80b9566b}; !- Port 1

OS:Sizing:Zone,
  {caeabdbc-90bd-49a4-afac-497da7f7f0fa}, !- Handle
  {c4b74da0-382a-47ca-9657-097354bf0d40}, !- Zone or ZoneList Name
  SupplyAirTemperature,                   !- Zone Cooling Design Supply Air Temperature Input Method
  14,                                     !- Zone Cooling Design Supply Air Temperature {C}
  11.11,                                  !- Zone Cooling Design Supply Air Temperature Difference {deltaC}
  SupplyAirTemperature,                   !- Zone Heating Design Supply Air Temperature Input Method
  40,                                     !- Zone Heating Design Supply Air Temperature {C}
  11.11,                                  !- Zone Heating Design Supply Air Temperature Difference {deltaC}
  0.0085,                                 !- Zone Cooling Design Supply Air Humidity Ratio {kg-H2O/kg-air}
  0.008,                                  !- Zone Heating Design Supply Air Humidity Ratio {kg-H2O/kg-air}
  ,                                       !- Zone Heating Sizing Factor
  ,                                       !- Zone Cooling Sizing Factor
  DesignDay,                              !- Cooling Design Air Flow Method
  ,                                       !- Cooling Design Air Flow Rate {m3/s}
  ,                                       !- Cooling Minimum Air Flow per Zone Floor Area {m3/s-m2}
  ,                                       !- Cooling Minimum Air Flow {m3/s}
  ,                                       !- Cooling Minimum Air Flow Fraction
  DesignDay,                              !- Heating Design Air Flow Method
  ,                                       !- Heating Design Air Flow Rate {m3/s}
  ,                                       !- Heating Maximum Air Flow per Zone Floor Area {m3/s-m2}
  ,                                       !- Heating Maximum Air Flow {m3/s}
  ,                                       !- Heating Maximum Air Flow Fraction
  No,                                     !- Account for Dedicated Outdoor Air System
  NeutralSupplyAir,                       !- Dedicated Outdoor Air System Control Strategy
  autosize,                               !- Dedicated Outdoor Air Low Setpoint Temperature for Design {C}
  autosize,                               !- Dedicated Outdoor Air High Setpoint Temperature for Design {C}
  Sensible Load Only No Latent Load,      !- Zone Load Sizing Method
  HumidityRatioDifference,                !- Zone Latent Cooling Design Supply Air Humidity Ratio Input Method
  ,                                       !- Zone Dehumidification Design Supply Air Humidity Ratio {kgWater/kgDryAir}
  0.005,                                  !- Zone Cooling Design Supply Air Humidity Ratio Difference {kgWater/kgDryAir}
  HumidityRatioDifference,                !- Zone Latent Heating Design Supply Air Humidity Ratio Input Method
  ,                                       !- Zone Humidification Design Supply Air Humidity Ratio {kgWater/kgDryAir}
  0.005,                                  !- Zone Humidification Design Supply Air Humidity Ratio Difference {kgWater/kgDryAir}
  ,                                       !- Zone Humidistat Dehumidification Set Point Schedule Name
  ,                                       !- Zone Humidistat Humidification Set Point Schedule Name
  ,                                       !- Design Zone Air Distribution Effectiveness in Cooling Mode
  ,                                       !- Design Zone Air Distribution Effectiveness in Heating Mode
  ,                                       !- Design Zone Secondary Recirculation Fraction {dimensionless}
  ,                                       !- Design Minimum Zone Ventilation Efficiency {dimensionless}
  Coincident;                             !- Sizing Option

OS:ZoneHVAC:EquipmentList,
  {62e3cbc8-8b4e-47a2-b803-951c334b7c83}, !- Handle
  Zone HVAC Equipment List 1,             !- Name
  {c4b74da0-382a-47ca-9657-097354bf0d40}, !- Thermal Zone
  ,                                       !- Load Distribution Scheme
  {8425d7fb-c847-4417-8e11-cfcb36044c87}, !- Zone Equipment 1
  1,                                      !- Zone Equipment Cooling Sequence 1
  1,                                      !- Zone Equipment Heating or No-Load Sequence 1
  {1eafb3c8-7691-41ce-b62e-ed8df8c772af}, !- Zone Equipment Sequential Cooling Fraction Schedule Name 1
  {f99e0fa1-21de-42e6-bcb6-e1f65a9c804b}, !- Zone Equipment Sequential Heating Fraction Schedule Name 1
  {147ebdc9-5df8-42f2-8d87-beee95f53b41}, !- Zone Equipment 2
  2,                                      !- Zone Equipment Cooling Sequence 2
  2,                                      !- Zone Equipment Heating or No-Load Sequence 2
  {416d71e6-9820-4d6c-910f-4d271f345d8b}, !- Zone Equipment Sequential Cooling Fraction Schedule Name 2
  {704c9409-d9b6-4833-b82c-08884f628d0c}; !- Zone Equipment Sequential Heating Fraction Schedule Name 2

OS:AdditionalProperties,
  {9e10aba5-2c67-4ca3-b3aa-9c33812faa1e}, !- Handle
  {c4b74da0-382a-47ca-9657-097354bf0d40}, !- Object Name
  ObjectType,                             !- Feature Name 1
  String,                                 !- Feature Data Type 1
  conditioned space;                      !- Feature Value 1

OS:Space,
  {f5472fc4-eacc-47de-a3e5-e8b9e845abbf}, !- Handle
  conditioned space 1,                    !- Name
  ,                                       !- Space Type Name
  ,                                       !- Default Construction Set Name
  ,                                       !- Default Schedule Set Name
  ,                                       !- Direction of Relative North {deg}
  ,                                       !- X Origin {m}
  ,                                       !- Y Origin {m}
  ,                                       !- Z Origin {m}
  ,                                       !- Building Story Name
  {c4b74da0-382a-47ca-9657-097354bf0d40}, !- Thermal Zone Name
  ,                                       !- Part of Total Floor Area
  ,                                       !- Design Specification Outdoor Air Object Name
  ,                                       !- Building Unit Name
  692.06373070848;                        !- Volume {m3}

OS:Schedule:Ruleset,
  {b2d391ce-930b-4d28-9622-51af698b672b}, !- Handle
  heating setpoint,                       !- Name
  {32aac8c9-ffe4-40cb-ba77-903d3f6ce238}, !- Schedule Type Limits Name
  {17fb62bf-69a7-4a01-bbf9-0a8034d71140}; !- Default Day Schedule Name

OS:Schedule:Day,
  {17fb62bf-69a7-4a01-bbf9-0a8034d71140}, !- Handle
  heating setpoint default day,           !- Name
  {32aac8c9-ffe4-40cb-ba77-903d3f6ce238}, !- Schedule Type Limits Name
  ,                                       !- Interpolate to Timestep
  24,                                     !- Hour 1
  0,                                      !- Minute 1
  0;                                      !- Value Until Time 1

OS:Schedule:Rule,
  {dd6b1a4c-00f6-48db-a283-7257f7c37a4d}, !- Handle
  heating setpoint weekday rule,          !- Name
  {b2d391ce-930b-4d28-9622-51af698b672b}, !- Schedule Ruleset Name
  1,                                      !- Rule Order
  {fbea78ae-bcb1-434f-9f2d-f41e286b8488}, !- Day Schedule Name
  No,                                     !- Apply Sunday
  Yes,                                    !- Apply Monday
  Yes,                                    !- Apply Tuesday
  Yes,                                    !- Apply Wednesday
  Yes,                                    !- Apply Thursday
  Yes,                                    !- Apply Friday
  No,                                     !- Apply Saturday
  DateRange,                              !- Date Specification Type
  1,                                      !- Start Month
  1,                                      !- Start Day
  12,                                     !- End Month
  31;                                     !- End Day

OS:Schedule:Day,
  {fbea78ae-bcb1-434f-9f2d-f41e286b8488}, !- Handle
  heating setpoint day,                   !- Name
  {32aac8c9-ffe4-40cb-ba77-903d3f6ce238}, !- Schedule Type Limits Name
  ,                                       !- Interpolate to Timestep
  7,                                      !- Hour 1
  0,                                      !- Minute 1
  16.6666666666667,                       !- Value Until Time 1
  9,                                      !- Hour 2
  0,                                      !- Minute 2
  18.3333333333333,                       !- Value Until Time 2
  17,                                     !- Hour 3
  0,                                      !- Minute 3
  16.6666666666667,                       !- Value Until Time 3
  22,                                     !- Hour 4
  0,                                      !- Minute 4
  18.3333333333333,                       !- Value Until Time 4
  24,                                     !- Hour 5
  0,                                      !- Minute 5
  16.6666666666667;                       !- Value Until Time 5

OS:Schedule:Rule,
  {0aa80a32-09cd-49a3-8736-9764a6b13951}, !- Handle
  heating setpoint weekend rule,          !- Name
  {b2d391ce-930b-4d28-9622-51af698b672b}, !- Schedule Ruleset Name
  0,                                      !- Rule Order
  {ff94fd4f-7f17-4380-8023-f652246c6d8a}, !- Day Schedule Name
  Yes,                                    !- Apply Sunday
  No,                                     !- Apply Monday
  No,                                     !- Apply Tuesday
  No,                                     !- Apply Wednesday
  No,                                     !- Apply Thursday
  No,                                     !- Apply Friday
  Yes,                                    !- Apply Saturday
  DateRange,                              !- Date Specification Type
  1,                                      !- Start Month
  1,                                      !- Start Day
  12,                                     !- End Month
  31;                                     !- End Day

OS:Schedule:Day,
  {ff94fd4f-7f17-4380-8023-f652246c6d8a}, !- Handle
  heating setpoint day 1,                 !- Name
  {32aac8c9-ffe4-40cb-ba77-903d3f6ce238}, !- Schedule Type Limits Name
  ,                                       !- Interpolate to Timestep
  7,                                      !- Hour 1
  0,                                      !- Minute 1
  16.6666666666667,                       !- Value Until Time 1
  22,                                     !- Hour 2
  0,                                      !- Minute 2
  18.3333333333333,                       !- Value Until Time 2
  24,                                     !- Hour 3
  0,                                      !- Minute 3
  16.6666666666667;                       !- Value Until Time 3

OS:Schedule:Ruleset,
  {832aa113-1eaa-4dcf-ac31-2fd70461af7e}, !- Handle
  cooling setpoint,                       !- Name
  {32aac8c9-ffe4-40cb-ba77-903d3f6ce238}, !- Schedule Type Limits Name
  {2092e5e9-9992-4634-a94b-55b7a418b756}; !- Default Day Schedule Name

OS:Schedule:Day,
  {2092e5e9-9992-4634-a94b-55b7a418b756}, !- Handle
  cooling setpoint default day,           !- Name
  {32aac8c9-ffe4-40cb-ba77-903d3f6ce238}, !- Schedule Type Limits Name
  ,                                       !- Interpolate to Timestep
  24,                                     !- Hour 1
  0,                                      !- Minute 1
  0;                                      !- Value Until Time 1

OS:Schedule:Rule,
  {7306df2c-b972-4175-8dc1-2b29b9ef4c74}, !- Handle
  cooling setpoint allday rule,           !- Name
  {832aa113-1eaa-4dcf-ac31-2fd70461af7e}, !- Schedule Ruleset Name
  0,                                      !- Rule Order
  {26cd3b72-5e0d-4cbf-bee0-1b2fbfafef98}, !- Day Schedule Name
  Yes,                                    !- Apply Sunday
  Yes,                                    !- Apply Monday
  Yes,                                    !- Apply Tuesday
  Yes,                                    !- Apply Wednesday
  Yes,                                    !- Apply Thursday
  Yes,                                    !- Apply Friday
  Yes,                                    !- Apply Saturday
  DateRange,                              !- Date Specification Type
  1,                                      !- Start Month
  1,                                      !- Start Day
  12,                                     !- End Month
  31;                                     !- End Day

OS:Schedule:Day,
  {26cd3b72-5e0d-4cbf-bee0-1b2fbfafef98}, !- Handle
  cooling setpoint day,                   !- Name
  {32aac8c9-ffe4-40cb-ba77-903d3f6ce238}, !- Schedule Type Limits Name
  ,                                       !- Interpolate to Timestep
  4,                                      !- Hour 1
  0,                                      !- Minute 1
  18.8888888888889,                       !- Value Until Time 1
  19,                                     !- Hour 2
  0,                                      !- Minute 2
  20,                                     !- Value Until Time 2
  24,                                     !- Hour 3
  0,                                      !- Minute 3
  18.8888888888889;                       !- Value Until Time 3

OS:ThermostatSetpoint:DualSetpoint,
  {2ba55bf4-d00c-4a3f-a0fb-22b4d6e83524}, !- Handle
  conditioned space temperature setpoint, !- Name
  {b2d391ce-930b-4d28-9622-51af698b672b}, !- Heating Setpoint Temperature Schedule Name
  {832aa113-1eaa-4dcf-ac31-2fd70461af7e}, !- Cooling Setpoint Temperature Schedule Name
  0;                                      !- Temperature Difference Between Cutout And Setpoint {deltaC}

OS:ScheduleTypeLimits,
  {32aac8c9-ffe4-40cb-ba77-903d3f6ce238}, !- Handle
  Temperature,                            !- Name
  ,                                       !- Lower Limit Value
  ,                                       !- Upper Limit Value
  Continuous,                             !- Numeric Type
  Temperature;                            !- Unit Type

OS:Surface,
  {69f57e01-c3a8-4a92-b979-a3e858302144}, !- Handle
  Roof1,                                  !- Name
  RoofCeiling,                            !- Surface Type
  {333e544d-d4bf-48b2-98b4-6238b339c1a3}, !- Construction Name
  {f5472fc4-eacc-47de-a3e5-e8b9e845abbf}, !- Space Name
  Outdoors,                               !- Outside Boundary Condition
  ,                                       !- Outside Boundary Condition Object
  SunExposed,                             !- Sun Exposure
  WindExposed,                            !- Wind Exposure
  ,                                       !- View Factor to Ground
  ,                                       !- Number of Vertices
  -6.49356352706278, 6.49356352706278, 5.1816, !- X,Y,Z Vertex 1 {m}
  -6.49356352706278, -6.49356352706278, 5.1816, !- X,Y,Z Vertex 2 {m}
  6.49356352706278, -6.49356352706278, 5.1816, !- X,Y,Z Vertex 3 {m}
  6.49356352706278, 6.49356352706278, 5.1816; !- X,Y,Z Vertex 4 {m}

OS:AdditionalProperties,
  {d9bc850b-ac08-4ef9-a1ec-a816dd6846f1}, !- Handle
  {69f57e01-c3a8-4a92-b979-a3e858302144}, !- Object Name
  Length,                                 !- Feature Name 1
  Double,                                 !- Feature Data Type 1
  42.608684560779395,                     !- Feature Value 1
  Width,                                  !- Feature Name 2
  Double,                                 !- Feature Data Type 2
  42.608684560779388,                     !- Feature Value 2
  Azimuth,                                !- Feature Name 3
  Integer,                                !- Feature Data Type 3
  0,                                      !- Feature Value 3
  Tilt,                                   !- Feature Name 4
  Double,                                 !- Feature Data Type 4
  0,                                      !- Feature Value 4
  SurfaceType,                            !- Feature Name 5
  String,                                 !- Feature Data Type 5
  Roof;                                   !- Feature Value 5

OS:Material,
  {75a52e88-b667-40ae-b389-fb2e2c2b59dd}, !- Handle
  asphalt or fiberglass shingles,         !- Name
  Rough,                                  !- Roughness
  0.00635,                                !- Thickness {m}
  0.162714,                               !- Conductivity {W/m-K}
  1121.4,                                 !- Density {kg/m3}
  1465.45,                                !- Specific Heat {J/kg-K}
  0.9,                                    !- Thermal Absorptance
  0.85,                                   !- Solar Absorptance
  0.85;                                   !- Visible Absorptance

OS:Material,
  {eb9b912b-3f65-4fbf-97ac-e3c09f8d703a}, !- Handle
  roof rigid ins,                         !- Name
  Rough,                                  !- Roughness
  0.103632,                               !- Thickness {m}
  0.029427,                               !- Conductivity {W/m-K}
  32.04,                                  !- Density {kg/m3}
  1214.23,                                !- Specific Heat {J/kg-K}
  0.9,                                    !- Thermal Absorptance
  0.7,                                    !- Solar Absorptance
  0.7;                                    !- Visible Absorptance

OS:Material,
  {f784fb31-e106-44c3-a5bf-d64216e8d0a8}, !- Handle
  osb sheathing 0.75 in.,                 !- Name
  Rough,                                  !- Roughness
  0.01905,                                !- Thickness {m}
  0.1154577,                              !- Conductivity {W/m-K}
  512.64,                                 !- Density {kg/m3}
  1214.23,                                !- Specific Heat {J/kg-K}
  0.9,                                    !- Thermal Absorptance
  0.7,                                    !- Solar Absorptance
  0.7;                                    !- Visible Absorptance

OS:Material,
  {33c5faf0-997c-430c-bce1-dc2bacf72c98}, !- Handle
  roof stud and cavity,                   !- Name
  Rough,                                  !- Roughness
  0.2032,                                 !- Thickness {m}
  0.161865559604855,                      !- Conductivity {W/m-K}
  78.34581,                               !- Density {kg/m3}
  1123.46101114405,                       !- Specific Heat {J/kg-K}
  0.9,                                    !- Thermal Absorptance
  0.7,                                    !- Solar Absorptance
  0.7;                                    !- Visible Absorptance

OS:Material,
  {5415a952-f0d1-4340-b460-39a5a3b1fc80}, !- Handle
  gypsum board,                           !- Name
  Rough,                                  !- Roughness
  0.0127,                                 !- Thickness {m}
  0.1602906,                              !- Conductivity {W/m-K}
  801,                                    !- Density {kg/m3}
  837.4,                                  !- Specific Heat {J/kg-K}
  0.9,                                    !- Thermal Absorptance
  0.6,                                    !- Solar Absorptance
  0.6;                                    !- Visible Absorptance

OS:Construction,
  {333e544d-d4bf-48b2-98b4-6238b339c1a3}, !- Handle
  Roof1 construction,                     !- Name
  ,                                       !- Surface Rendering Name
  {75a52e88-b667-40ae-b389-fb2e2c2b59dd}, !- Layer 1
  {eb9b912b-3f65-4fbf-97ac-e3c09f8d703a}, !- Layer 2
  {f784fb31-e106-44c3-a5bf-d64216e8d0a8}, !- Layer 3
  {33c5faf0-997c-430c-bce1-dc2bacf72c98}, !- Layer 4
  {5415a952-f0d1-4340-b460-39a5a3b1fc80}; !- Layer 5

OS:Surface,
  {75f16ce0-e961-4327-94f5-93853f74dec7}, !- Handle
  Wall1,                                  !- Name
  Wall,                                   !- Surface Type
  {79df826a-fb0c-4a3e-a4b7-fce7885e3fea}, !- Construction Name
  {9b231374-ac26-4e45-a6bc-9449961349e9}, !- Space Name
  Outdoors,                               !- Outside Boundary Condition
  ,                                       !- Outside Boundary Condition Object
  SunExposed,                             !- Sun Exposure
  WindExposed,                            !- Wind Exposure
  ,                                       !- View Factor to Ground
  ,                                       !- Number of Vertices
  20.8646802627355, 39.0264684324324, 0.3048, !- X,Y,Z Vertex 1 {m}
  20.8646802627355, 39.0264684324324, 5.1816, !- X,Y,Z Vertex 2 {m}
  24.5222802627355, 39.0264684324324, 5.1816, !- X,Y,Z Vertex 3 {m}
  24.5222802627355, 39.0264684324324, 0.3048; !- X,Y,Z Vertex 4 {m}

OS:AdditionalProperties,
  {a0ebe10b-3e31-4ffe-8e18-c1e38df24071}, !- Handle
  {75f16ce0-e961-4327-94f5-93853f74dec7}, !- Object Name
  Length,                                 !- Feature Name 1
  Double,                                 !- Feature Data Type 1
  12,                                     !- Feature Value 1
  Azimuth,                                !- Feature Name 2