
OS:Version,
  {79272dd4-6165-4246-ad12-757a3d0a2009}, !- Handle
  3.10.0;                                 !- Version Identifier

OS:SimulationControl,
  {3ce6ea02-d8e9-40b9-ba3c-a55bbaf0a076}, !- Handle
  ,                                       !- Do Zone Sizing Calculation
  ,                                       !- Do System Sizing Calculation
  ,                                       !- Do Plant Sizing Calculation
  No;                                     !- Run Simulation for Sizing Periods

OS:Timestep,
  {5f46e204-b10c-439f-ac70-d9549d806147}, !- Handle
  1;                                      !- Number of Timesteps per Hour

OS:ShadowCalculation,
  {28438b74-5b76-4602-8bf7-7c3e1ec3de91}, !- Handle
  PolygonClipping,                        !- Shading Calculation Method
  ,                                       !- Shading Calculation Update Frequency Method
  20,                                     !- Shading Calculation Update Frequency
  200,                                    !- Maximum Figures in Shadow Overlap Calculations
  ,                                       !- Polygon Clipping Algorithm
  512,                                    !- Pixel Counting Resolution
  ,                                       !- Sky Diffuse Modeling Algorithm
  No,                                     !- Output External Shading Calculation Results
  No,                                     !- Disable Self-Shading Within Shading Zone Groups
  No;                                     !- Disable Self-Shading From Shading Zone Groups to Other Zones

OS:SurfaceConvectionAlgorithm:Outside,
  {08b836be-262f-4795-91dd-3f68c294a54c}, !- Handle
  DOE-2;                                  !- Algorithm

OS:SurfaceConvectionAlgorithm:Inside,
  {728a1b7c-42ca-4ef7-a8dc-4561efc1f8d1}, !- Handle
  TARP;                                   !- Algorithm

OS:ZoneCapacitanceMultiplier:ResearchSpecial,
  {fb7c6eb9-e131-4e5a-9fd1-674f905ec5a6}, !- Handle
  7,                                      !- Temperature Capacity Multiplier
  15,                                     !- Humidity Capacity Multiplier
  ;                                       !- Carbon Dioxide Capacity Multiplier

OS:ConvergenceLimits,
  {41eefa7f-4231-441e-9c27-77db92b9eab5}, !- Handle
  0;                                      !- Minimum System Timestep {minutes}

OS:RunPeriod,
  {ac55ab9d-1a45-4f1b-bfbb-573109042298}, !- Handle
  Run Period 1,                           !- Name
  1,                                      !- Begin Month
  1,                                      !- Begin Day of Month
  12,                                     !- End Month
  31,                                     !- End Day of Month
  ,                                       !- Use Weather File Holidays and Special Days
  ,                                       !- Use Weather File Daylight Saving Period
  ,                                       !- Apply Weekend Holiday Rule
  ,                                       !- Use Weather File Rain Indicators
  ,                                       !- Use Weather File Snow Indicators
  ;                                       !- Number of Times Runperiod to be Repeated

OS:PerformancePrecisionTradeoffs,
  {a8d15b53-7093-4b54-ba37-c8f2acf97139}, !- Handle
  ,                                       !- Use Coil Direct Solutions
  CarrollMRT;                             !- Zone Radiant Exchange Algorithm

OS:WeatherFile,
  {1d4b0af4-f47d-4933-8ec1-2e029be967e1}, !- Handle
  Buffalo Niagara Intl Ap,                !- City
  NY,                                     !- State Province Region
  USA,                                    !- Country
  TMY3,                                   !- Data Source
  725280,                                 !- WMO Number
  42.93,                                  !- Latitude {deg}
  -78.73,                                 !- Longitude {deg}
  -5,                                     !- Time Zone {hr}
  215,                                    !- Elevation {m}
  /Users/nmoore/github/urbanopt-example-geojson-project/example_project/weather/USA_NY_Buffalo-Greater.Buffalo.Intl.AP.725280_TMY3.epw, !- Url
  6B50E0FF,                               !- Checksum
  ,                                       !- Start Date Actual Year
  Sunday;                                 !- Start Day of Week

OS:YearDescription,
  {ccef70a2-842d-43d9-9365-be6a27324a8a}, !- Handle
  2007,                                   !- Calendar Year
  ,                                       !- Day of Week for Start Day
  ;                                       !- Is Leap Year

OS:Site,
  {e43db1f4-eacc-4b5e-b36c-f925972c5066}, !- Handle
  Buffalo Niagara Intl Ap_NY,             !- Name
  42.93,                                  !- Latitude {deg}
  -78.73,                                 !- Longitude {deg}
  -5,                                     !- Time Zone {hr}
  215,                                    !- Elevation {m}
  Suburbs,                                !- Terrain
  Yes;                                    !- Keep Site Location Information

OS:RunPeriodControl:DaylightSavingTime,
  {82267839-5697-4ddd-96ea-be804c33b06f}, !- Handle
  Mar 12,                                 !- Start Date
  Nov 5;                                  !- End Date

OS:Site:GroundTemperature:Shallow,
  {a00c1e9d-aad2-49f7-ae35-5bb881160ddd}, !- Handle
  4.30207395723828,                       !- January Surface Ground Temperature {C}
  2.29327249652502,                       !- February Surface Ground Temperature {C}
  2.13240047156047,                       !- March Surface Ground Temperature {C}
  3.08567940719286,                       !- April Surface Ground Temperature {C}
  6.91256312497526,                       !- May Surface Ground Temperature {C}
  10.7216195949507,                       !- June Surface Ground Temperature {C}
  14.0238679822574,                       !- July Surface Ground Temperature {C}
  16.1157611184724,                       !- August Surface Ground Temperature {C}
  16.2934789303462,                       !- September Surface Ground Temperature {C}
  14.5920754632847,                       !- October Surface Ground Temperature {C}
  11.374036348653,                        !- November Surface Ground Temperature {C}
  7.68182621661674;                       !- December Surface Ground Temperature {C}

OS:ThermalZone,
  {357e686c-67ac-4cd8-a2dd-4404ab709287}, !- Handle
  conditioned space,                      !- Name
  1,                                      !- Multiplier
  ,                                       !- Ceiling Height {m}
  346.03186535424,                        !- Volume {m3}
  ,                                       !- Floor Area {m2}
  ,                                       !- Zone Inside Convection Algorithm
  ,                                       !- Zone Outside Convection Algorithm
  ,                                       !- Zone Conditioning Equipment List Name
  {1bf3d1bd-db56-4bde-8a1c-c0b25dace863}, !- Zone Air Inlet Port List
  {58a77813-50ff-4eb1-95e6-9fbacc443c0c}, !- Zone Air Exhaust Port List
  {fd7f7800-78db-4311-99f8-897d042594c1}, !- Zone Air Node Name
  {4d038316-123a-4574-80ec-190f71ef6a3a}, !- Zone Return Air Port List
  ,                                       !- Primary Daylighting Control Name
  ,                                       !- Fraction of Zone Controlled by Primary Daylighting Control
  ,                                       !- Secondary Daylighting Control Name
  ,                                       !- Fraction of Zone Controlled by Secondary Daylighting Control
  ,                                       !- Illuminance Map Name
  ,                                       !- Group Rendering Name
  {17e4cba3-2f42-42ab-905a-e0050004d427}, !- Thermostat Name
  No;                                     !- Use Ideal Air Loads

OS:Node,
  {d8a55011-1465-48b9-8499-23b4b15f86ad}, !- Handle
  Node 1,                                 !- Name
  {fd7f7800-78db-4311-99f8-897d042594c1}, !- Inlet Port
  ;                                       !- Outlet Port

OS:Connection,
  {fd7f7800-78db-4311-99f8-897d042594c1}, !- Handle
  {357e686c-67ac-4cd8-a2dd-4404ab709287}, !- Source Object
  11,                                     !- Outlet Port
  {d8a55011-1465-48b9-8499-23b4b15f86ad}, !- Target Object
  2;                                      !- Inlet Port

OS:PortList,
  {1bf3d1bd-db56-4bde-8a1c-c0b25dace863}, !- Handle
  {357e686c-67ac-4cd8-a2dd-4404ab709287}, !- HVAC Component
  {61f215d1-5f04-4a8a-9830-b0f98686492f}; !- Port 1

OS:PortList,
  {58a77813-50ff-4eb1-95e6-9fbacc443c0c}, !- Handle
  {357e686c-67ac-4cd8-a2dd-4404ab709287}; !- HVAC Component

OS:PortList,
  {4d038316-123a-4574-80ec-190f71ef6a3a}, !- Handle
  {357e686c-67ac-4cd8-a2dd-4404ab709287}, !- HVAC Component
  {166677ba-6af1-43c5-8818-3bf82062db95}; !- Port 1

OS:Sizing:Zone,
  {eaf61966-8ec8-4a4c-8c34-40485ede91a0}, !- Handle
  {357e686c-67ac-4cd8-a2dd-4404ab709287}, !- Zone or ZoneList Name
  SupplyAirTemperature,                   !- Zone Cooling Design Supply Air Temperature Input Method
  14,                                     !- Zone Cooling Design Supply Air Temperature {C}
  11.11,                                  !- Zone Cooling Design Supply Air Temperature Difference {deltaC}
  SupplyAirTemperature,                   !- Zone Heating Design Supply Air Temperature Input Method
  40,                                     !- Zone Heating Design Supply Air Temperature {C}
  11.11,                                  !- Zone Heating Design Supply Air Temperature Difference {deltaC}
  0.0085,                                 !- Zone Cooling Design Supply Air Humidity Ratio {kg-H2O/kg-air}
  0.008,                                  !- Zone Heating Design Supply Air Humidity Ratio {kg-H2O/kg-air}
  ,                                       !- Zone Heating Sizing Factor
  ,                                       !- Zone Cooling Sizing Factor
  DesignDay,                              !- Cooling Design Air Flow Method
  ,                                       !- Cooling Design Air Flow Rate {m3/s}
  ,                                       !- Cooling Minimum Air Flow per Zone Floor Area {m3/s-m2}
  ,                                       !- Cooling Minimum Air Flow {m3/s}
  ,                                       !- Cooling Minimum Air Flow Fraction
  DesignDay,                              !- Heating Design Air Flow Method
  ,                                       !- Heating Design Air Flow Rate {m3/s}
  ,                                       !- Heating Maximum Air Flow per Zone Floor Area {m3/s-m2}
  ,                                       !- Heating Maximum Air Flow {m3/s}
  ,                                       !- Heating Maximum Air Flow Fraction
  No,                                     !- Account for Dedicated Outdoor Air System
  NeutralSupplyAir,                       !- Dedicated Outdoor Air System Control Strategy
  autosize,                               !- Dedicated Outdoor Air Low Setpoint Temperature for Design {C}
  autosize,                               !- Dedicated Outdoor Air High Setpoint Temperature for Design {C}
  Sensible Load Only No Latent Load,      !- Zone Load Sizing Method
  HumidityRatioDifference,                !- Zone Latent Cooling Design Supply Air Humidity Ratio Input Method
  ,                                       !- Zone Dehumidification Design Supply Air Humidity Ratio {kgWater/kgDryAir}
  0.005,                                  !- Zone Cooling Design Supply Air Humidity Ratio Difference {kgWater/kgDryAir}
  HumidityRatioDifference,                !- Zone Latent Heating Design Supply Air Humidity Ratio Input Method
  ,                                       !- Zone Humidification Design Supply Air Humidity Ratio {kgWater/kgDryAir}
  0.005,                                  !- Zone Humidification Design Supply Air Humidity Ratio Difference {kgWater/kgDryAir}
  ,                                       !- Zone Humidistat Dehumidification Set Point Schedule Name
  ,                                       !- Zone Humidistat Humidification Set Point Schedule Name
  ,                                       !- Design Zone Air Distribution Effectiveness in Cooling Mode
  ,                                       !- Design Zone Air Distribution Effectiveness in Heating Mode
  ,                                       !- Design Zone Secondary Recirculation Fraction {dimensionless}
  ,                                       !- Design Minimum Zone Ventilation Efficiency {dimensionless}
  Coincident;                             !- Sizing Option

OS:ZoneHVAC:EquipmentList,
  {75d7b13c-2faa-49cc-8834-a4c09f3fa54d}, !- Handle
  Zone HVAC Equipment List 1,             !- Name
  {357e686c-67ac-4cd8-a2dd-4404ab709287}, !- Thermal Zone
  ,                                       !- Load Distribution Scheme
  {b0317f02-38d2-4253-97ea-97c98f6efea1}, !- Zone Equipment 1
  1,                                      !- Zone Equipment Cooling Sequence 1
  1,                                      !- Zone Equipment Heating or No-Load Sequence 1
  {f3ca5869-d293-4484-abc9-0f45122ad4ef}, !- Zone Equipment Sequential Cooling Fraction Schedule Name 1
  {107156c7-978e-4e13-b020-d768022ae599}; !- Zone Equipment Sequential Heating Fraction Schedule Name 1

OS:AdditionalProperties,
  {e1fc1949-0ee1-4cc2-9e9b-71a9666b959e}, !- Handle
  {357e686c-67ac-4cd8-a2dd-4404ab709287}, !- Object Name
  ObjectType,                             !- Feature Name 1
  String,                                 !- Feature Data Type 1
  conditioned space;                      !- Feature Value 1

OS:Space,
  {c52aa6c7-9abe-4892-900d-4ff3a6101bc1}, !- Handle
  conditioned space 1,                    !- Name
  ,                                       !- Space Type Name
  ,                                       !- Default Construction Set Name
  ,                                       !- Default Schedule Set Name
  ,                                       !- Direction of Relative North {deg}
  ,                                       !- X Origin {m}
  ,                                       !- Y Origin {m}
  ,                                       !- Z Origin {m}
  ,                                       !- Building Story Name
  {357e686c-67ac-4cd8-a2dd-4404ab709287}, !- Thermal Zone Name
  ,                                       !- Part of Total Floor Area
  ,                                       !- Design Specification Outdoor Air Object Name
  ,                                       !- Building Unit Name
  346.03186535424;                        !- Volume {m3}

OS:Schedule:Ruleset,
  {2fceb6df-b967-4d99-ae70-f7b4d2a1848a}, !- Handle
  heating setpoint,                       !- Name
  {3085e1aa-4cb1-4cb6-a5bf-e25cfbc25cdf}, !- Schedule Type Limits Name
  {28049d59-8226-4fcd-9678-cf16f9a8f8bf}; !- Default Day Schedule Name

OS:Schedule:Day,
  {28049d59-8226-4fcd-9678-cf16f9a8f8bf}, !- Handle
  heating setpoint default day,           !- Name
  {3085e1aa-4cb1-4cb6-a5bf-e25cfbc25cdf}, !- Schedule Type Limits Name
  ,                                       !- Interpolate to Timestep
  24,                                     !- Hour 1
  0,                                      !- Minute 1
  0;                                      !- Value Until Time 1

OS:Schedule:Rule,
  {3f4c3532-3215-4b5d-b10d-668814f7e0d0}, !- Handle
  heating setpoint allday rule,           !- Name
  {2fceb6df-b967-4d99-ae70-f7b4d2a1848a}, !- Schedule Ruleset Name
  0,                                      !- Rule Order
  {fe1f863a-0fc0-4971-9c98-bfac80c68b94}, !- Day Schedule Name
  Yes,                                    !- Apply Sunday
  Yes,                                    !- Apply Monday
  Yes,                                    !- Apply Tuesday
  Yes,                                    !- Apply Wednesday
  Yes,                                    !- Apply Thursday
  Yes,                                    !- Apply Friday
  Yes,                                    !- Apply Saturday
  DateRange,                              !- Date Specification Type
  1,                                      !- Start Month
  1,                                      !- Start Day
  12,                                     !- End Month
  31;                                     !- End Day

OS:Schedule:Day,
  {fe1f863a-0fc0-4971-9c98-bfac80c68b94}, !- Handle
  heating setpoint day,                   !- Name
  {3085e1aa-4cb1-4cb6-a5bf-e25cfbc25cdf}, !- Schedule Type Limits Name
  ,                                       !- Interpolate to Timestep
  24,                                     !- Hour 1
  0,                                      !- Minute 1
  20;                                     !- Value Until Time 1

OS:Schedule:Ruleset,
  {6cd51026-fceb-49d5-8acb-019c4c4b69e3}, !- Handle
  cooling setpoint,                       !- Name
  {3085e1aa-4cb1-4cb6-a5bf-e25cfbc25cdf}, !- Schedule Type Limits Name
  {4704f9d6-9e13-434e-bc16-73859d058a65}; !- Default Day Schedule Name

OS:Schedule:Day,
  {4704f9d6-9e13-434e-bc16-73859d058a65}, !- Handle
  cooling setpoint default day,           !- Name
  {3085e1aa-4cb1-4cb6-a5bf-e25cfbc25cdf}, !- Schedule Type Limits Name
  ,                                       !- Interpolate to Timestep
  24,                                     !- Hour 1
  0,                                      !- Minute 1
  0;                                      !- Value Until Time 1

OS:Schedule:Rule,
  {9f0afb6a-a7c2-4a37-b5e8-473754ece06a}, !- Handle
  cooling setpoint allday rule,           !- Name
  {6cd51026-fceb-49d5-8acb-019c4c4b69e3}, !- Schedule Ruleset Name
  0,                                      !- Rule Order
  {adab28e4-0f1a-4e7c-ad04-40e2926da676}, !- Day Schedule Name
  Yes,                                    !- Apply Sunday
  Yes,                                    !- Apply Monday
  Yes,                                    !- Apply Tuesday
  Yes,                                    !- Apply Wednesday
  Yes,                                    !- Apply Thursday
  Yes,                                    !- Apply Friday
  Yes,                                    !- Apply Saturday
  DateRange,                              !- Date Specification Type
  1,                                      !- Start Month
  1,                                      !- Start Day
  12,                                     !- End Month
  31;                                     !- End Day

OS:Schedule:Day,
  {adab28e4-0f1a-4e7c-ad04-40e2926da676}, !- Handle
  cooling setpoint day,                   !- Name
  {3085e1aa-4cb1-4cb6-a5bf-e25cfbc25cdf}, !- Schedule Type Limits Name
  ,                                       !- Interpolate to Timestep
  24,                                     !- Hour 1
  0,                                      !- Minute 1
  25.5555555555556;                       !- Value Until Time 1

OS:ThermostatSetpoint:DualSetpoint,
  {17e4cba3-2f42-42ab-905a-e0050004d427}, !- Handle
  conditioned space temperature setpoint, !- Name
  {2fceb6df-b967-4d99-ae70-f7b4d2a1848a}, !- Heating Setpoint Temperature Schedule Name
  {6cd51026-fceb-49d5-8acb-019c4c4b69e3}, !- Cooling Setpoint Temperature Schedule Name
  0;                                      !- Temperature Difference Between Cutout And Setpoint {deltaC}

OS:ScheduleTypeLimits,
  {3085e1aa-4cb1-4cb6-a5bf-e25cfbc25cdf}, !- Handle
  Temperature,                            !- Name
  ,                                       !- Lower Limit Value
  ,                                       !- Upper Limit Value
  Continuous,                             !- Numeric Type
  Temperature;                            !- Unit Type

OS:Surface,
  {ef34c8e2-b1f8-467b-8262-6fd111e2df37}, !- Handle
  Wall1,                                  !- Name
  Wall,                                   !- Surface Type
  {7f601504-c696-426d-9c3c-9f36251c26e9}, !- Construction Name
  {c52aa6c7-9abe-4892-900d-4ff3a6101bc1}, !- Space Name
  Outdoors,                               !- Outside Boundary Condition
  ,                                       !- Outside Boundary Condition Object
  SunExposed,                             !- Sun Exposure
  WindExposed,                            !- Wind Exposure
  ,                                       !- View Factor to Ground
  ,                                       !- Number of Vertices
  -41.694735, 42.6237654, 0,              !- X,Y,Z Vertex 1 {m}
  -41.694735, 42.6237654, 2.4384,         !- X,Y,Z Vertex 2 {m}
  -29.780865, 42.6237654, 2.4384,         !- X,Y,Z Vertex 3 {m}
  -29.780865, 42.6237654, 0;              !- X,Y,Z Vertex 4 {m}

OS:AdditionalProperties,
  {a2f0ab85-8732-42fd-91dd-0285f5f01e23}, !- Handle
  {ef34c8e2-b1f8-467b-8262-6fd111e2df37}, !- Object Name
  Length,                                 !- Feature Name 1
  Double,                                 !- Feature Data Type 1
  39.087499999999999,                     !- Feature Value 1
  Azimuth,                                !- Feature Name 2
  Integer,                                !- Feature Data Type 2
  0,                                      !- Feature Value 2
  Tilt,                                   !- Feature Name 3
  Double,                                 !- Feature Data Type 3
  90,                                     !- Feature Value 3
  SurfaceType,                            !- Feature Name 4
  String,                                 !- Feature Data Type 4
  Wall;                                   !- Feature Value 4

OS:Material,
  {a7bfa185-73c9-45e7-8a77-e5a34cd20a19}, !- Handle
  wood siding,                            !- Name
  Rough,                                  !- Roughness
  0.0254,                                 !- Thickness {m}
  0.1024175,                              !- Conductivity {W/m-K}
  544.68,                                 !- Density {kg/m3}
  1172.36,                                !- Specific Heat {J/kg-K}
  0.9,                                    !- Thermal Absorptance
  0.7,                                    !- Solar Absorptance
  0.7;                                    !- Visible Absorptance

OS:Material,
  {9082b072-39c5-4be6-8c47-1e2e6c4c0ec5}, !- Handle
  osb sheathing 0.5 in.,                  !- Name
  Rough,                                  !- Roughness
  0.0127,                                 !- Thickness {m}
  0.1154577,                              !- Conductivity {W/m-K}
  512.64,                                 !- Density {kg/m3}
  1214.23,                                !- Specific Heat {J/kg-K}
  0.9,                                    !- Thermal Absorptance
  0.7,                                    !- Solar Absorptance
  0.7;                                    !- Visible Absorptance

OS:Material,
  {2cf3558f-7578-4b52-9dfa-1d2978ff036f}, !- Handle
  wall stud and cavity,                   !- Name
  Rough,                                  !- Roughness
  0.1397,                                 !- Thickness {m}
  0.0929021674204099,                     !- Conductivity {W/m-K}
  139.0536,                               !- Density {kg/m3}
  1170.23755760369,                       !- Specific Heat {J/kg-K}
  0.9,                                    !- Thermal Absorptance
  0.7,                                    !- Solar Absorptance
  0.7;                                    !- Visible Absorptance

OS:Material,
  {f4aff0dc-f1a4-4141-8f05-3c0dbc4f294d}, !- Handle
  gypsum board,                           !- Name
  Rough,                                  !- Roughness
  0.0127,                                 !- Thickness {m}
  0.1602906,                              !- Conductivity {W/m-K}
  801,                                    !- Density {kg/m3}
  837.4,                                  !- Specific Heat {J/kg-K}
  0.9,                                    !- Thermal Absorptance
  0.6,                                    !- Solar Absorptance
  0.6;                                    !- Visible Absorptance

OS:Construction,
  {7f601504-c696-426d-9c3c-9f36251c26e9}, !- Handle
  Wall1 construction,                     !- Name
  ,                                       !- Surface Rendering Name
  {a7bfa185-73c9-45e7-8a77-e5a34cd20a19}, !- Layer 1
  {9082b072-39c5-4be6-8c47-1e2e6c4c0ec5}, !- Layer 2
  {2cf3558f-7578-4b52-9dfa-1d2978ff036f}, !- Layer 3
  {f4aff0dc-f1a4-4141-8f05-3c0dbc4f294d}; !- Layer 4

OS:Surface,
  {6aa5a9a0-553c-45d4-b720-5bd33610753f}, !- Handle
  Wall2,                                  !- Name
  Wall,                                   !- Surface Type
  {1783d011-3385-4c1b-a3a4-49c401a15bc9}, !- Construction Name
  {c52aa6c7-9abe-4892-900d-4ff3a6101bc1}, !- Space Name
  Outdoors,                               !- Outside Boundary Condition
  ,                                       !- Outside Boundary Condition Object
  SunExposed,                             !- Sun Exposure
  WindExposed,                            !- Wind Exposure
  ,                                       !- View Factor to Ground
  ,                                       !- Number of Vertices
  42.6237654, -36.6687354, 0,             !- X,Y,Z Vertex 1 {m}
  42.6237654, -36.6687354, 2.4384,        !- X,Y,Z Vertex 2 {m}
  42.6237654, -42.6237654, 2.4384,        !- X,Y,Z Vertex 3 {m}
  42.6237654, -42.6237654, 0;             !- X,Y,Z Vertex 4 {m}

OS:AdditionalProperties,
  {60805352-160b-47f4-b3dd-eba2da412424}, !- Handle
  {6aa5a9a0-553c-45d4-b720-5bd33610753f}, !- Object Name
  Length,                                 !- Feature Name 1
  Double,                                 !- Feature Data Type 1
  19.537500000000001,                     !- Feature Value 1
  Azimuth,                                !- Feature Name 2
  Integer,                                !- Feature Data Type 2
  90,                                     !- Feature Value 2
  Tilt,                                   !- Feature Name 3
  Double,                                 !- Feature Data Type 3
  90,                                     !- Feature Value 3
  SurfaceType,                            !- Feature Name 4
  String,                                 !- Feature Data Type 4
  Wall;                                   !- Feature Value 4

OS:Construction,
  {1783d011-3385-4c1b-a3a4-49c401a15bc9}, !- Handle
  Wall2 construction,                     !- Name
  ,                                       !- Surface Rendering Name
  {a7bfa185-73c9-45e7-8a77-e5a34cd20a19}, !- Layer 1
  {9082b072-39c5-4be6-8c47-1e2e6c4c0ec5}, !- Layer 2
  {2cf3558f-7578-4b52-9dfa-1d2978ff036f}, !- Layer 3
  {f4aff0dc-f1a4-4141-8f05-3c0dbc4f294d}; !- Layer 4

OS:Surface,
  {44941345-3120-4ca5-94a2-3c448a5eaaa1}, !- Handle
  Wall3,                                  !- Name
  Wall,                                   !- Surface Type
  {78a83f0a-5e80-4efa-903d-3726768b7151}, !- Construction Name
  {c52aa6c7-9abe-4892-900d-4ff3a6101bc1}, !- Space Name
  Outdoors,                               !- Outside Boundary Condition
  ,                                       !- Outside Boundary Condition Object
  SunExposed,                             !- Sun Exposure
  WindExposed,                            !- Wind Exposure
  ,                                       !- View Factor to Ground
  ,                                       !- Number of Vertices
  -29.6289219715142, -42.6237654, 0,      !- X,Y,Z Vertex 1 {m}
  -29.6289219715142, -42.6237654, 2.4384, !- X,Y,Z Vertex 2 {m}
  -40.7807919715142, -42.6237654, 2.4384, !- X,Y,Z Vertex 3 {m}
  -40.7807919715142, -42.6237654, 0;      !- X,Y,Z Vertex 4 {m}

OS:AdditionalProperties,
  {e5fc498b-937f-4482-aa8d-84d88ad2f500}, !- Handle
  {44941345-3120-4ca5-94a2-3c448a5eaaa1}, !- Object Name
  Length,                                 !- Feature Name 1
  Double,                                 !- Feature Data Type 1
  36.587499999999999,                     !- Feature Value 1
  Azimuth,                                !- Feature Name 2
  Integer,                                !- Feature Data Type 2
  180,                                    !- Feature Value 2
  Tilt,                                   !- Feature Name 3
  Double,                                 !- Feature Data Type 3
  90,                                     !- Feature Value 3
  SurfaceType,                            !- Feature Name 4
  String,                                 !- Feature Data Type 4
  Wall;                                   !- Feature Value 4

OS:Construction,
  {78a83f0a-5e80-4efa-903d-3726768b7151}, !- Handle
  Wall3 construction,                     !- Name
  ,                                       !- Surface Rendering Name
  {a7bfa185-73c9-45e7-8a77-e5a34cd20a19}, !- Layer 1
  {9082b072-39c5-4be6-8c47-1e2e6c4c0ec5}, !- Layer 2
  {2cf3558f-7578-4b52-9dfa-1d2978ff036f}, !- Layer 3
  {f4aff0dc-f1a4-4141-8f05-3c0dbc4f294d}; !- Layer 4

OS:Surface,
  {9a6d302f-f1b5-4416-8256-652c7c9c0c40}, !- Handle
  Wall4,                                  !- Name
  Wall,                                   !- Surface Type
  {08134e1d-81df-483d-9ffb-a4da8d80b1af}, !- Construction Name
  {c52aa6c7-9abe-4892-900d-4ff3a6101bc1}, !- Space Name
  Outdoors,                               !- Outside Boundary Condition
  ,                                       !- Outside Boundary Condition Object
  SunExposed,                             !- Sun Exposure
  WindExposed,                            !- Wind Exposure
  ,                                       !- View Factor to Ground
  ,                                       !- Number of Vertices
  -42.6237654, 36.6687354, 0,             !- X,Y,Z Vertex 1 {m}
  -42.6237654, 36.6687354, 2.4384,        !- X,Y,Z Vertex 2 {m}
  -42.6237654, 42.6237654, 2.4384,        !- X,Y,Z Vertex 3 {m}
  -42.6237654, 42.6237654, 0;             !- X,Y,Z Vertex 4 {m}

OS:AdditionalProperties,
  {b52cbfb3-300f-4828-9cdb-f1364e290c19}, !- Handle
  {9a6d302f-f1b5-4416-8256-652c7c9c0c40}, !- Object Name
  Length,                                 !- Feature Name 1