
OS:Version,
  {e1632946-6bbd-4f02-9f10-eba979169bed}, !- Handle
  3.9.0;                                  !- Version Identifier

OS:SimulationControl,
  {57fac2f4-f62c-4e9e-b732-848a4589844b}, !- Handle
  ,                                       !- Do Zone Sizing Calculation
  ,                                       !- Do System Sizing Calculation
  ,                                       !- Do Plant Sizing Calculation
  No;                                     !- Run Simulation for Sizing Periods

OS:Timestep,
  {fdbc5260-b182-414f-ae2e-0f88952cc0d2}, !- Handle
  1;                                      !- Number of Timesteps per Hour

OS:ShadowCalculation,
  {65730b8a-e8eb-485c-80bf-a366b2443d3f}, !- Handle
  PolygonClipping,                        !- Shading Calculation Method
  ,                                       !- Shading Calculation Update Frequency Method
  20,                                     !- Shading Calculation Update Frequency
  200,                                    !- Maximum Figures in Shadow Overlap Calculations
  ,                                       !- Polygon Clipping Algorithm
  512,                                    !- Pixel Counting Resolution
  ,                                       !- Sky Diffuse Modeling Algorithm
  No,                                     !- Output External Shading Calculation Results
  No,                                     !- Disable Self-Shading Within Shading Zone Groups
  No;                                     !- Disable Self-Shading From Shading Zone Groups to Other Zones

OS:SurfaceConvectionAlgorithm:Outside,
  {32664b27-5b5f-4175-b20d-a1e4a3464485}, !- Handle
  DOE-2;                                  !- Algorithm

OS:SurfaceConvectionAlgorithm:Inside,
  {0c7f8279-76d0-457f-a464-dea8579330dd}, !- Handle
  TARP;                                   !- Algorithm

OS:ZoneCapacitanceMultiplier:ResearchSpecial,
  {5fc0223f-d1a0-4aaa-a4a1-f233bbe876bd}, !- Handle
  7,                                      !- Temperature Capacity Multiplier
  15,                                     !- Humidity Capacity Multiplier
  ;                                       !- Carbon Dioxide Capacity Multiplier

OS:ConvergenceLimits,
  {c87296aa-78c2-487b-b987-be9be7ccab7a}, !- Handle
  0;                                      !- Minimum System Timestep {minutes}

OS:RunPeriod,
  {adaadd85-9dca-4528-9145-4bf7f5d8bdfe}, !- Handle
  Run Period 1,                           !- Name
  1,                                      !- Begin Month
  1,                                      !- Begin Day of Month
  12,                                     !- End Month
  31,                                     !- End Day of Month
  ,                                       !- Use Weather File Holidays and Special Days
  ,                                       !- Use Weather File Daylight Saving Period
  ,                                       !- Apply Weekend Holiday Rule
  ,                                       !- Use Weather File Rain Indicators
  ,                                       !- Use Weather File Snow Indicators
  ;                                       !- Number of Times Runperiod to be Repeated

OS:PerformancePrecisionTradeoffs,
  {c6ce1b66-5dd2-4eaa-bf86-8b538e957ced}, !- Handle
  ,                                       !- Use Coil Direct Solutions
  CarrollMRT;                             !- Zone Radiant Exchange Algorithm

OS:WeatherFile,
  {5b0d2da4-7bbf-4725-963e-feffe075335a}, !- Handle
  Buffalo Niagara Intl Ap,                !- City
  NY,                                     !- State Province Region
  USA,                                    !- Country
  TMY3,                                   !- Data Source
  725280,                                 !- WMO Number
  42.93,                                  !- Latitude {deg}
  -78.73,                                 !- Longitude {deg}
  -5,                                     !- Time Zone {hr}
  215,                                    !- Elevation {m}
  /Users/nmoore/github/urbanopt-example-geojson-project/example_project/weather/USA_NY_Buffalo-Greater.Buffalo.Intl.AP.725280_TMY3.epw, !- Url
  6B50E0FF,                               !- Checksum
  ,                                       !- Start Date Actual Year
  Sunday;                                 !- Start Day of Week

OS:YearDescription,
  {99b6cf09-be7e-4637-8125-913273e56a0e}, !- Handle
  2007,                                   !- Calendar Year
  ,                                       !- Day of Week for Start Day
  ;                                       !- Is Leap Year

OS:Site,
  {919f7ac9-2741-4b06-a22b-4dd49fe22b33}, !- Handle
  Buffalo Niagara Intl Ap_NY,             !- Name
  42.93,                                  !- Latitude {deg}
  -78.73,                                 !- Longitude {deg}
  -5,                                     !- Time Zone {hr}
  215,                                    !- Elevation {m}
  Suburbs,                                !- Terrain
  Yes;                                    !- Keep Site Location Information

OS:RunPeriodControl:DaylightSavingTime,
  {86c09f3e-2a7a-4d71-8920-dd0e8592b125}, !- Handle
  Mar 12,                                 !- Start Date
  Nov 5;                                  !- End Date

OS:Site:GroundTemperature:Shallow,
  {e46455cd-7bba-450c-993d-4e664bb5e5f9}, !- Handle
  4.30207395723828,                       !- January Surface Ground Temperature {C}
  2.29327249652502,                       !- February Surface Ground Temperature {C}
  2.13240047156047,                       !- March Surface Ground Temperature {C}
  3.08567940719286,                       !- April Surface Ground Temperature {C}
  6.91256312497526,                       !- May Surface Ground Temperature {C}
  10.7216195949507,                       !- June Surface Ground Temperature {C}
  14.0238679822574,                       !- July Surface Ground Temperature {C}
  16.1157611184724,                       !- August Surface Ground Temperature {C}
  16.2934789303462,                       !- September Surface Ground Temperature {C}
  14.5920754632847,                       !- October Surface Ground Temperature {C}
  11.374036348653,                        !- November Surface Ground Temperature {C}
  7.68182621661674;                       !- December Surface Ground Temperature {C}

OS:ThermalZone,
  {10615134-bada-4a13-bad5-a378247e4cb7}, !- Handle
  conditioned space,                      !- Name
  1,                                      !- Multiplier
  ,                                       !- Ceiling Height {m}
  346.03186535424,                        !- Volume {m3}
  ,                                       !- Floor Area {m2}
  ,                                       !- Zone Inside Convection Algorithm
  ,                                       !- Zone Outside Convection Algorithm
  ,                                       !- Zone Conditioning Equipment List Name
  {556e2c13-ef4c-49be-9862-c43d4cb37ff6}, !- Zone Air Inlet Port List
  {0cfd5042-78b8-41d8-9542-8011aa91c1d3}, !- Zone Air Exhaust Port List
  {721b6e7e-1719-4645-a4cb-9cb7b05d8e7e}, !- Zone Air Node Name
  {0567fbae-571f-4c7f-a86a-a92d3dd3a6a4}, !- Zone Return Air Port List
  ,                                       !- Primary Daylighting Control Name
  ,                                       !- Fraction of Zone Controlled by Primary Daylighting Control
  ,                                       !- Secondary Daylighting Control Name
  ,                                       !- Fraction of Zone Controlled by Secondary Daylighting Control
  ,                                       !- Illuminance Map Name
  ,                                       !- Group Rendering Name
  {cb7ae4ad-9501-45e1-bc1f-e47d41fb0653}, !- Thermostat Name
  No;                                     !- Use Ideal Air Loads

OS:Node,
  {8302dbaf-1dbf-42d6-a478-6754832cc815}, !- Handle
  Node 1,                                 !- Name
  {721b6e7e-1719-4645-a4cb-9cb7b05d8e7e}, !- Inlet Port
  ;                                       !- Outlet Port

OS:Connection,
  {721b6e7e-1719-4645-a4cb-9cb7b05d8e7e}, !- Handle
  {10615134-bada-4a13-bad5-a378247e4cb7}, !- Source Object
  11,                                     !- Outlet Port
  {8302dbaf-1dbf-42d6-a478-6754832cc815}, !- Target Object
  2;                                      !- Inlet Port

OS:PortList,
  {556e2c13-ef4c-49be-9862-c43d4cb37ff6}, !- Handle
  {10615134-bada-4a13-bad5-a378247e4cb7}, !- HVAC Component
  {50392009-ffaa-4f4c-bb10-51a88b13d564}; !- Port 1

OS:PortList,
  {0cfd5042-78b8-41d8-9542-8011aa91c1d3}, !- Handle
  {10615134-bada-4a13-bad5-a378247e4cb7}; !- HVAC Component

OS:PortList,
  {0567fbae-571f-4c7f-a86a-a92d3dd3a6a4}, !- Handle
  {10615134-bada-4a13-bad5-a378247e4cb7}, !- HVAC Component
  {a8d44e85-6fe6-4ad4-905e-ba32ab71788c}; !- Port 1

OS:Sizing:Zone,
  {f43d234b-7800-4a34-a5a7-a2ee88ac4189}, !- Handle
  {10615134-bada-4a13-bad5-a378247e4cb7}, !- Zone or ZoneList Name
  SupplyAirTemperature,                   !- Zone Cooling Design Supply Air Temperature Input Method
  14,                                     !- Zone Cooling Design Supply Air Temperature {C}
  11.11,                                  !- Zone Cooling Design Supply Air Temperature Difference {deltaC}
  SupplyAirTemperature,                   !- Zone Heating Design Supply Air Temperature Input Method
  40,                                     !- Zone Heating Design Supply Air Temperature {C}
  11.11,                                  !- Zone Heating Design Supply Air Temperature Difference {deltaC}
  0.0085,                                 !- Zone Cooling Design Supply Air Humidity Ratio {kg-H2O/kg-air}
  0.008,                                  !- Zone Heating Design Supply Air Humidity Ratio {kg-H2O/kg-air}
  ,                                       !- Zone Heating Sizing Factor
  ,                                       !- Zone Cooling Sizing Factor
  DesignDay,                              !- Cooling Design Air Flow Method
  ,                                       !- Cooling Design Air Flow Rate {m3/s}
  ,                                       !- Cooling Minimum Air Flow per Zone Floor Area {m3/s-m2}
  ,                                       !- Cooling Minimum Air Flow {m3/s}
  ,                                       !- Cooling Minimum Air Flow Fraction
  DesignDay,                              !- Heating Design Air Flow Method
  ,                                       !- Heating Design Air Flow Rate {m3/s}
  ,                                       !- Heating Maximum Air Flow per Zone Floor Area {m3/s-m2}
  ,                                       !- Heating Maximum Air Flow {m3/s}
  ,                                       !- Heating Maximum Air Flow Fraction
  No,                                     !- Account for Dedicated Outdoor Air System
  NeutralSupplyAir,                       !- Dedicated Outdoor Air System Control Strategy
  autosize,                               !- Dedicated Outdoor Air Low Setpoint Temperature for Design {C}
  autosize,                               !- Dedicated Outdoor Air High Setpoint Temperature for Design {C}
  Sensible Load Only No Latent Load,      !- Zone Load Sizing Method
  HumidityRatioDifference,                !- Zone Latent Cooling Design Supply Air Humidity Ratio Input Method
  ,                                       !- Zone Dehumidification Design Supply Air Humidity Ratio {kgWater/kgDryAir}
  0.005,                                  !- Zone Cooling Design Supply Air Humidity Ratio Difference {kgWater/kgDryAir}
  HumidityRatioDifference,                !- Zone Latent Heating Design Supply Air Humidity Ratio Input Method
  ,                                       !- Zone Humidification Design Supply Air Humidity Ratio {kgWater/kgDryAir}
  0.005,                                  !- Zone Humidification Design Supply Air Humidity Ratio Difference {kgWater/kgDryAir}
  ,                                       !- Zone Humidistat Dehumidification Set Point Schedule Name
  ,                                       !- Zone Humidistat Humidification Set Point Schedule Name
  ,                                       !- Design Zone Air Distribution Effectiveness in Cooling Mode
  ,                                       !- Design Zone Air Distribution Effectiveness in Heating Mode
  ,                                       !- Design Zone Secondary Recirculation Fraction {dimensionless}
  ,                                       !- Design Minimum Zone Ventilation Efficiency {dimensionless}
  Coincident;                             !- Sizing Option

OS:ZoneHVAC:EquipmentList,
  {9be3b0aa-6181-4439-9d66-4ca6c9b66f02}, !- Handle
  Zone HVAC Equipment List 1,             !- Name
  {10615134-bada-4a13-bad5-a378247e4cb7}, !- Thermal Zone
  ,                                       !- Load Distribution Scheme
  {6d091f95-4353-46b0-a4e5-22f17ad288e0}, !- Zone Equipment 1
  1,                                      !- Zone Equipment Cooling Sequence 1
  1,                                      !- Zone Equipment Heating or No-Load Sequence 1
  {c785b2f7-0422-454b-8dad-4558b3f08fac}, !- Zone Equipment Sequential Cooling Fraction Schedule Name 1
  {a2ee449b-f578-45a1-a644-a1a0fc79f6ae}; !- Zone Equipment Sequential Heating Fraction Schedule Name 1

OS:AdditionalProperties,
  {ba61c5af-0a16-4d2b-aa89-dfb43c4f82e9}, !- Handle
  {10615134-bada-4a13-bad5-a378247e4cb7}, !- Object Name
  ObjectType,                             !- Feature Name 1
  String,                                 !- Feature Data Type 1
  conditioned space;                      !- Feature Value 1

OS:Space,
  {9b32d492-a00a-4616-9ea0-642afd812769}, !- Handle
  conditioned space 1,                    !- Name
  ,                                       !- Space Type Name
  ,                                       !- Default Construction Set Name
  ,                                       !- Default Schedule Set Name
  ,                                       !- Direction of Relative North {deg}
  ,                                       !- X Origin {m}
  ,                                       !- Y Origin {m}
  ,                                       !- Z Origin {m}
  ,                                       !- Building Story Name
  {10615134-bada-4a13-bad5-a378247e4cb7}, !- Thermal Zone Name
  ,                                       !- Part of Total Floor Area
  ,                                       !- Design Specification Outdoor Air Object Name
  ,                                       !- Building Unit Name
  346.03186535424;                        !- Volume {m3}

OS:Schedule:Ruleset,
  {5e089ae5-486c-41f6-aa00-96143dd112de}, !- Handle
  heating setpoint,                       !- Name
  {9fb35d84-679d-450a-be27-94dc8bb93afe}, !- Schedule Type Limits Name
  {486d6379-c86b-40af-814d-484aa3a63ef8}; !- Default Day Schedule Name

OS:Schedule:Day,
  {486d6379-c86b-40af-814d-484aa3a63ef8}, !- Handle
  heating setpoint default day,           !- Name
  {9fb35d84-679d-450a-be27-94dc8bb93afe}, !- Schedule Type Limits Name
  ,                                       !- Interpolate to Timestep
  24,                                     !- Hour 1
  0,                                      !- Minute 1
  0;                                      !- Value Until Time 1

OS:Schedule:Rule,
  {3059a71a-54a4-4329-992c-7c0fa3e66500}, !- Handle
  heating setpoint allday rule,           !- Name
  {5e089ae5-486c-41f6-aa00-96143dd112de}, !- Schedule Ruleset Name
  0,                                      !- Rule Order
  {ca4f67d5-71c7-411e-a4e9-a56a7e2105cc}, !- Day Schedule Name
  Yes,                                    !- Apply Sunday
  Yes,                                    !- Apply Monday
  Yes,                                    !- Apply Tuesday
  Yes,                                    !- Apply Wednesday
  Yes,                                    !- Apply Thursday
  Yes,                                    !- Apply Friday
  Yes,                                    !- Apply Saturday
  DateRange,                              !- Date Specification Type
  1,                                      !- Start Month
  1,                                      !- Start Day
  12,                                     !- End Month
  31;                                     !- End Day

OS:Schedule:Day,
  {ca4f67d5-71c7-411e-a4e9-a56a7e2105cc}, !- Handle
  heating setpoint day,                   !- Name
  {9fb35d84-679d-450a-be27-94dc8bb93afe}, !- Schedule Type Limits Name
  ,                                       !- Interpolate to Timestep
  24,                                     !- Hour 1
  0,                                      !- Minute 1
  20;                                     !- Value Until Time 1

OS:Schedule:Ruleset,
  {c21ed2b8-6f6c-4792-8d2d-d6af7a9dc93a}, !- Handle
  cooling setpoint,                       !- Name
  {9fb35d84-679d-450a-be27-94dc8bb93afe}, !- Schedule Type Limits Name
  {a0987945-f25d-4dab-9e2f-4fe611f5677e}; !- Default Day Schedule Name

OS:Schedule:Day,
  {a0987945-f25d-4dab-9e2f-4fe611f5677e}, !- Handle
  cooling setpoint default day,           !- Name
  {9fb35d84-679d-450a-be27-94dc8bb93afe}, !- Schedule Type Limits Name
  ,                                       !- Interpolate to Timestep
  24,                                     !- Hour 1
  0,                                      !- Minute 1
  0;                                      !- Value Until Time 1

OS:Schedule:Rule,
  {71164b08-a83f-4ae5-9fe0-2be372811c12}, !- Handle
  cooling setpoint allday rule,           !- Name
  {c21ed2b8-6f6c-4792-8d2d-d6af7a9dc93a}, !- Schedule Ruleset Name
  0,                                      !- Rule Order
  {fccdde38-0fbf-4001-91b8-4c0240f2bb53}, !- Day Schedule Name
  Yes,                                    !- Apply Sunday
  Yes,                                    !- Apply Monday
  Yes,                                    !- Apply Tuesday
  Yes,                                    !- Apply Wednesday
  Yes,                                    !- Apply Thursday
  Yes,                                    !- Apply Friday
  Yes,                                    !- Apply Saturday
  DateRange,                              !- Date Specification Type
  1,                                      !- Start Month
  1,                                      !- Start Day
  12,                                     !- End Month
  31;                                     !- End Day

OS:Schedule:Day,
  {fccdde38-0fbf-4001-91b8-4c0240f2bb53}, !- Handle
  cooling setpoint day,                   !- Name
  {9fb35d84-679d-450a-be27-94dc8bb93afe}, !- Schedule Type Limits Name
  ,                                       !- Interpolate to Timestep
  24,                                     !- Hour 1
  0,                                      !- Minute 1
  25.5555555555556;                       !- Value Until Time 1

OS:ThermostatSetpoint:DualSetpoint,
  {cb7ae4ad-9501-45e1-bc1f-e47d41fb0653}, !- Handle
  conditioned space temperature setpoint, !- Name
  {5e089ae5-486c-41f6-aa00-96143dd112de}, !- Heating Setpoint Temperature Schedule Name
  {c21ed2b8-6f6c-4792-8d2d-d6af7a9dc93a}, !- Cooling Setpoint Temperature Schedule Name
  0;                                      !- Temperature Difference Between Cutout And Setpoint {deltaC}

OS:ScheduleTypeLimits,
  {9fb35d84-679d-450a-be27-94dc8bb93afe}, !- Handle
  Temperature,                            !- Name
  ,                                       !- Lower Limit Value
  ,                                       !- Upper Limit Value
  Continuous,                             !- Numeric Type
  Temperature;                            !- Unit Type

OS:Surface,
  {e9900a3e-8e2e-4e90-b04f-0a50aa68a1bc}, !- Handle
  Wall1,                                  !- Name
  Wall,                                   !- Surface Type
  {c460164d-90ae-47c7-83d8-7272d68489fa}, !- Construction Name
  {9b32d492-a00a-4616-9ea0-642afd812769}, !- Space Name
  Outdoors,                               !- Outside Boundary Condition
  ,                                       !- Outside Boundary Condition Object
  SunExposed,                             !- Sun Exposure
  WindExposed,                            !- Wind Exposure
  ,                                       !- View Factor to Ground
  ,                                       !- Number of Vertices
  -41.694735, 42.6237654, 0,              !- X,Y,Z Vertex 1 {m}
  -41.694735, 42.6237654, 2.4384,         !- X,Y,Z Vertex 2 {m}
  -29.780865, 42.6237654, 2.4384,         !- X,Y,Z Vertex 3 {m}
  -29.780865, 42.6237654, 0;              !- X,Y,Z Vertex 4 {m}

OS:AdditionalProperties,
  {b9585a2e-adee-4b77-a9d7-2889bbfbe157}, !- Handle
  {e9900a3e-8e2e-4e90-b04f-0a50aa68a1bc}, !- Object Name
  Length,                                 !- Feature Name 1
  Double,                                 !- Feature Data Type 1
  39.087499999999999,                     !- Feature Value 1
  Azimuth,                                !- Feature Name 2
  Integer,                                !- Feature Data Type 2
  0,                                      !- Feature Value 2
  Tilt,                                   !- Feature Name 3
  Double,                                 !- Feature Data Type 3
  90,                                     !- Feature Value 3
  SurfaceType,                            !- Feature Name 4
  String,                                 !- Feature Data Type 4
  Wall;                                   !- Feature Value 4

OS:Material,
  {fd5e9b34-be1d-47ae-8f82-f304892d9121}, !- Handle
  wood siding,                            !- Name
  Rough,                                  !- Roughness
  0.0254,                                 !- Thickness {m}
  0.1024175,                              !- Conductivity {W/m-K}
  544.68,                                 !- Density {kg/m3}
  1172.36,                                !- Specific Heat {J/kg-K}
  0.9,                                    !- Thermal Absorptance
  0.7,                                    !- Solar Absorptance
  0.7;                                    !- Visible Absorptance

OS:Material,
  {31daa533-cf9d-4a28-b15e-9ac8b1291212}, !- Handle
  osb sheathing 0.5 in.,                  !- Name
  Rough,                                  !- Roughness
  0.0127,                                 !- Thickness {m}
  0.1154577,                              !- Conductivity {W/m-K}
  512.64,                                 !- Density {kg/m3}
  1214.23,                                !- Specific Heat {J/kg-K}
  0.9,                                    !- Thermal Absorptance
  0.7,                                    !- Solar Absorptance
  0.7;                                    !- Visible Absorptance

OS:Material,
  {563c582e-67b6-4591-95fe-7851baa9d953}, !- Handle
  wall stud and cavity,                   !- Name
  Rough,                                  !- Roughness
  0.1397,                                 !- Thickness {m}
  0.0929021674204099,                     !- Conductivity {W/m-K}
  139.0536,                               !- Density {kg/m3}
  1170.23755760369,                       !- Specific Heat {J/kg-K}
  0.9,                                    !- Thermal Absorptance
  0.7,                                    !- Solar Absorptance
  0.7;                                    !- Visible Absorptance

OS:Material,
  {d5011804-bc4e-41a7-9919-667525b443dc}, !- Handle
  gypsum board,                           !- Name
  Rough,                                  !- Roughness
  0.0127,                                 !- Thickness {m}
  0.1602906,                              !- Conductivity {W/m-K}
  801,                                    !- Density {kg/m3}
  837.4,                                  !- Specific Heat {J/kg-K}
  0.9,                                    !- Thermal Absorptance
  0.6,                                    !- Solar Absorptance
  0.6;                                    !- Visible Absorptance

OS:Construction,
  {c460164d-90ae-47c7-83d8-7272d68489fa}, !- Handle
  Wall1 construction,                     !- Name
  ,                                       !- Surface Rendering Name
  {fd5e9b34-be1d-47ae-8f82-f304892d9121}, !- Layer 1
  {31daa533-cf9d-4a28-b15e-9ac8b1291212}, !- Layer 2
  {563c582e-67b6-4591-95fe-7851baa9d953}, !- Layer 3
  {d5011804-bc4e-41a7-9919-667525b443dc}; !- Layer 4

OS:Surface,
  {7e60fe84-b0bb-47dd-8f21-8ff8c901fe1a}, !- Handle
  Wall2,                                  !- Name
  Wall,                                   !- Surface Type
  {04935f4a-efce-4f35-b541-0ee6a226a0c9}, !- Construction Name
  {9b32d492-a00a-4616-9ea0-642afd812769}, !- Space Name
  Outdoors,                               !- Outside Boundary Condition
  ,                                       !- Outside Boundary Condition Object
  SunExposed,                             !- Sun Exposure
  WindExposed,                            !- Wind Exposure
  ,                                       !- View Factor to Ground
  ,                                       !- Number of Vertices
  42.6237654, -36.6687354, 0,             !- X,Y,Z Vertex 1 {m}
  42.6237654, -36.6687354, 2.4384,        !- X,Y,Z Vertex 2 {m}
  42.6237654, -42.6237654, 2.4384,        !- X,Y,Z Vertex 3 {m}
  42.6237654, -42.6237654, 0;             !- X,Y,Z Vertex 4 {m}

OS:AdditionalProperties,
  {20cedce2-3c99-4d37-ada1-0aa23c9b3a85}, !- Handle
  {7e60fe84-b0bb-47dd-8f21-8ff8c901fe1a}, !- Object Name
  Length,                                 !- Feature Name 1
  Double,                                 !- Feature Data Type 1
  19.537500000000001,                     !- Feature Value 1
  Azimuth,                                !- Feature Name 2
  Integer,                                !- Feature Data Type 2
  90,                                     !- Feature Value 2
  Tilt,                                   !- Feature Name 3
  Double,                                 !- Feature Data Type 3
  90,                                     !- Feature Value 3
  SurfaceType,                            !- Feature Name 4
  String,                                 !- Feature Data Type 4
  Wall;                                   !- Feature Value 4

OS:Construction,
  {04935f4a-efce-4f35-b541-0ee6a226a0c9}, !- Handle
  Wall2 construction,                     !- Name
  ,                                       !- Surface Rendering Name
  {fd5e9b34-be1d-47ae-8f82-f304892d9121}, !- Layer 1
  {31daa533-cf9d-4a28-b15e-9ac8b1291212}, !- Layer 2
  {563c582e-67b6-4591-95fe-7851baa9d953}, !- Layer 3
  {d5011804-bc4e-41a7-9919-667525b443dc}; !- Layer 4

OS:Surface,
  {64433566-99fc-4a7f-ae1b-f50b7e15f4b6}, !- Handle
  Wall3,                                  !- Name
  Wall,                                   !- Surface Type
  {31a65d7d-47ef-4fd5-b4f6-3bc91658f2cb}, !- Construction Name
  {9b32d492-a00a-4616-9ea0-642afd812769}, !- Space Name
  Outdoors,                               !- Outside Boundary Condition
  ,                                       !- Outside Boundary Condition Object
  SunExposed,                             !- Sun Exposure
  WindExposed,                            !- Wind Exposure
  ,                                       !- View Factor to Ground
  ,                                       !- Number of Vertices
  -29.6289219715142, -42.6237654, 0,      !- X,Y,Z Vertex 1 {m}
  -29.6289219715142, -42.6237654, 2.4384, !- X,Y,Z Vertex 2 {m}
  -40.7807919715142, -42.6237654, 2.4384, !- X,Y,Z Vertex 3 {m}
  -40.7807919715142, -42.6237654, 0;      !- X,Y,Z Vertex 4 {m}

OS:AdditionalProperties,
  {79a28de9-6597-4089-9ef4-875069202a39}, !- Handle
  {64433566-99fc-4a7f-ae1b-f50b7e15f4b6}, !- Object Name
  Length,                                 !- Feature Name 1
  Double,                                 !- Feature Data Type 1
  36.587499999999999,                     !- Feature Value 1
  Azimuth,                                !- Feature Name 2
  Integer,                                !- Feature Data Type 2
  180,                                    !- Feature Value 2
  Tilt,                                   !- Feature Name 3
  Double,                                 !- Feature Data Type 3
  90,                                     !- Feature Value 3
  SurfaceType,                            !- Feature Name 4
  String,                                 !- Feature Data Type 4
  Wall;                                   !- Feature Value 4

OS:Construction,
  {31a65d7d-47ef-4fd5-b4f6-3bc91658f2cb}, !- Handle
  Wall3 construction,                     !- Name
  ,                                       !- Surface Rendering Name
  {fd5e9b34-be1d-47ae-8f82-f304892d9121}, !- Layer 1
  {31daa533-cf9d-4a28-b15e-9ac8b1291212}, !- Layer 2
  {563c582e-67b6-4591-95fe-7851baa9d953}, !- Layer 3
  {d5011804-bc4e-41a7-9919-667525b443dc}; !- Layer 4

OS:Surface,
  {86b2a1b6-0947-4ef4-bbde-1daf3015d929}, !- Handle
  Wall4,                                  !- Name
  Wall,                                   !- Surface Type
  {1833a794-52f3-4d8c-9866-38ec4818ae3e}, !- Construction Name
  {9b32d492-a00a-4616-9ea0-642afd812769}, !- Space Name
  Outdoors,                               !- Outside Boundary Condition
  ,                                       !- Outside Boundary Condition Object
  SunExposed,                             !- Sun Exposure
  WindExposed,                            !- Wind Exposure
  ,                                       !- View Factor to Ground
  ,                                       !- Number of Vertices
  -42.6237654, 36.6687354, 0,             !- X,Y,Z Vertex 1 {m}
  -42.6237654, 36.6687354, 2.4384,        !- X,Y,Z Vertex 2 {m}
  -42.6237654, 42.6237654, 2.4384,        !- X,Y,Z Vertex 3 {m}
  -42.6237654, 42.6237654, 0;             !- X,Y,Z Vertex 4 {m}

OS:AdditionalProperties,
  {4213d9e6-0c93-4c9a-bfe0-9e6c3155a223}, !- Handle
  {86b2a1b6-0947-4ef4-bbde-1daf3015d929}, !- Object Name
  Length,                                 !- Feature Name 1