
OS:Version,
  {d7e0491b-3f0c-4b5c-932c-354ad765dc8d}, !- Handle
  3.10.0;                                 !- Version Identifier

OS:SimulationControl,
  {f4a08884-3745-4652-9525-bc8499ea1122}, !- Handle
  ,                                       !- Do Zone Sizing Calculation
  ,                                       !- Do System Sizing Calculation
  ,                                       !- Do Plant Sizing Calculation
  No;                                     !- Run Simulation for Sizing Periods

OS:Timestep,
  {dea4e887-d943-4fab-b6c4-c2677837a86c}, !- Handle
  1;                                      !- Number of Timesteps per Hour

OS:ShadowCalculation,
  {a5e922dd-6af1-42a4-a55b-ba1e064c51c2}, !- Handle
  PolygonClipping,                        !- Shading Calculation Method
  ,                                       !- Shading Calculation Update Frequency Method
  20,                                     !- Shading Calculation Update Frequency
  200,                                    !- Maximum Figures in Shadow Overlap Calculations
  ,                                       !- Polygon Clipping Algorithm
  512,                                    !- Pixel Counting Resolution
  ,                                       !- Sky Diffuse Modeling Algorithm
  No,                                     !- Output External Shading Calculation Results
  No,                                     !- Disable Self-Shading Within Shading Zone Groups
  No;                                     !- Disable Self-Shading From Shading Zone Groups to Other Zones

OS:SurfaceConvectionAlgorithm:Outside,
  {24bacd75-62b4-4eae-8fae-b064402b6a1c}, !- Handle
  DOE-2;                                  !- Algorithm

OS:SurfaceConvectionAlgorithm:Inside,
  {a6df8400-0d17-49b0-8cbc-a6f5bbb91a53}, !- Handle
  TARP;                                   !- Algorithm

OS:ZoneCapacitanceMultiplier:ResearchSpecial,
  {4203316f-889b-4214-9ca0-9167250066e4}, !- Handle
  7,                                      !- Temperature Capacity Multiplier
  15,                                     !- Humidity Capacity Multiplier
  ;                                       !- Carbon Dioxide Capacity Multiplier

OS:ConvergenceLimits,
  {57d7ae70-2acf-49be-87e1-1ca81c9de16a}, !- Handle
  0;                                      !- Minimum System Timestep {minutes}

OS:RunPeriod,
  {a0fd5e11-cf3f-462c-9316-2d2025485678}, !- Handle
  Run Period 1,                           !- Name
  1,                                      !- Begin Month
  1,                                      !- Begin Day of Month
  12,                                     !- End Month
  31,                                     !- End Day of Month
  ,                                       !- Use Weather File Holidays and Special Days
  ,                                       !- Use Weather File Daylight Saving Period
  ,                                       !- Apply Weekend Holiday Rule
  ,                                       !- Use Weather File Rain Indicators
  ,                                       !- Use Weather File Snow Indicators
  ;                                       !- Number of Times Runperiod to be Repeated

OS:PerformancePrecisionTradeoffs,
  {20e58b0d-392d-4a80-817a-8880d93af45f}, !- Handle
  ,                                       !- Use Coil Direct Solutions
  CarrollMRT;                             !- Zone Radiant Exchange Algorithm

OS:WeatherFile,
  {52978fdd-dabd-4182-bfc0-7bee0d81297c}, !- Handle
  Buffalo Niagara Intl Ap,                !- City
  NY,                                     !- State Province Region
  USA,                                    !- Country
  TMY3,                                   !- Data Source
  725280,                                 !- WMO Number
  42.93,                                  !- Latitude {deg}
  -78.73,                                 !- Longitude {deg}
  -5,                                     !- Time Zone {hr}
  215,                                    !- Elevation {m}
  /Users/nmoore/github/urbanopt-example-geojson-project/example_project/weather/USA_NY_Buffalo-Greater.Buffalo.Intl.AP.725280_TMY3.epw, !- Url
  6B50E0FF,                               !- Checksum
  ,                                       !- Start Date Actual Year
  Sunday;                                 !- Start Day of Week

OS:YearDescription,
  {62677e58-f6d1-4284-a9ac-ea1dda29b600}, !- Handle
  2007,                                   !- Calendar Year
  ,                                       !- Day of Week for Start Day
  ;                                       !- Is Leap Year

OS:Site,
  {fac8f08f-961e-4287-8c0c-62772fe4da7b}, !- Handle
  Buffalo Niagara Intl Ap_NY,             !- Name
  42.93,                                  !- Latitude {deg}
  -78.73,                                 !- Longitude {deg}
  -5,                                     !- Time Zone {hr}
  215,                                    !- Elevation {m}
  Suburbs,                                !- Terrain
  Yes;                                    !- Keep Site Location Information

OS:RunPeriodControl:DaylightSavingTime,
  {014379cc-d2bc-4372-a37f-4dd5133a51ae}, !- Handle
  Mar 12,                                 !- Start Date
  Nov 5;                                  !- End Date

OS:Site:GroundTemperature:Shallow,
  {1e56ffb3-6f0c-435f-bfd6-b7b8a7d15429}, !- Handle
  4.30207395723828,                       !- January Surface Ground Temperature {C}
  2.29327249652502,                       !- February Surface Ground Temperature {C}
  2.13240047156047,                       !- March Surface Ground Temperature {C}
  3.08567940719286,                       !- April Surface Ground Temperature {C}
  6.91256312497526,                       !- May Surface Ground Temperature {C}
  10.7216195949507,                       !- June Surface Ground Temperature {C}
  14.0238679822574,                       !- July Surface Ground Temperature {C}
  16.1157611184724,                       !- August Surface Ground Temperature {C}
  16.2934789303462,                       !- September Surface Ground Temperature {C}
  14.5920754632847,                       !- October Surface Ground Temperature {C}
  11.374036348653,                        !- November Surface Ground Temperature {C}
  7.68182621661674;                       !- December Surface Ground Temperature {C}

OS:Site:GroundTemperature:Deep,
  {a84a8ae9-57b7-4c09-bd9e-30e950fb65f1}, !- Handle
  10,                                     !- January Deep Ground Temperature {C}
  10,                                     !- February Deep Ground Temperature {C}
  10,                                     !- March Deep Ground Temperature {C}
  10,                                     !- April Deep Ground Temperature {C}
  10,                                     !- May Deep Ground Temperature {C}
  10,                                     !- June Deep Ground Temperature {C}
  10,                                     !- July Deep Ground Temperature {C}
  10,                                     !- August Deep Ground Temperature {C}
  10,                                     !- September Deep Ground Temperature {C}
  10,                                     !- October Deep Ground Temperature {C}
  10,                                     !- November Deep Ground Temperature {C}
  10;                                     !- December Deep Ground Temperature {C}

OS:ThermalZone,
  {f0851b6a-e944-42e3-bac9-63004de92466}, !- Handle
  conditioned space,                      !- Name
  1,                                      !- Multiplier
  ,                                       !- Ceiling Height {m}
  692.06373070848,                        !- Volume {m3}
  ,                                       !- Floor Area {m2}
  ,                                       !- Zone Inside Convection Algorithm
  ,                                       !- Zone Outside Convection Algorithm
  ,                                       !- Zone Conditioning Equipment List Name
  {c033e619-e3fc-43ee-875b-02402ad32213}, !- Zone Air Inlet Port List
  {b0213daf-642c-4bfc-a730-5b4edf21b193}, !- Zone Air Exhaust Port List
  {dbe771f4-e12f-4cb3-aac5-09476390fcba}, !- Zone Air Node Name
  {eefb1e56-858a-4376-886b-c3fb762566d9}, !- Zone Return Air Port List
  ,                                       !- Primary Daylighting Control Name
  ,                                       !- Fraction of Zone Controlled by Primary Daylighting Control
  ,                                       !- Secondary Daylighting Control Name
  ,                                       !- Fraction of Zone Controlled by Secondary Daylighting Control
  ,                                       !- Illuminance Map Name
  ,                                       !- Group Rendering Name
  {3973dafb-ba35-4761-ba4d-dca52dad4b97}, !- Thermostat Name
  No;                                     !- Use Ideal Air Loads

OS:Node,
  {13332c70-375a-4e98-bf16-110a67f1bb3b}, !- Handle
  Node 1,                                 !- Name
  {dbe771f4-e12f-4cb3-aac5-09476390fcba}, !- Inlet Port
  ;                                       !- Outlet Port

OS:Connection,
  {dbe771f4-e12f-4cb3-aac5-09476390fcba}, !- Handle
  {f0851b6a-e944-42e3-bac9-63004de92466}, !- Source Object
  11,                                     !- Outlet Port
  {13332c70-375a-4e98-bf16-110a67f1bb3b}, !- Target Object
  2;                                      !- Inlet Port

OS:PortList,
  {c033e619-e3fc-43ee-875b-02402ad32213}, !- Handle
  {f0851b6a-e944-42e3-bac9-63004de92466}, !- HVAC Component
  {5e810f75-7383-4189-b23f-359d6f3b0a1d}; !- Port 1

OS:PortList,
  {b0213daf-642c-4bfc-a730-5b4edf21b193}, !- Handle
  {f0851b6a-e944-42e3-bac9-63004de92466}; !- HVAC Component

OS:PortList,
  {eefb1e56-858a-4376-886b-c3fb762566d9}, !- Handle
  {f0851b6a-e944-42e3-bac9-63004de92466}, !- HVAC Component
  {c7da9b67-f571-4e04-a93b-12bf3e87d21e}; !- Port 1

OS:Sizing:Zone,
  {8bd430c3-e062-4afc-90ec-75952c830d29}, !- Handle
  {f0851b6a-e944-42e3-bac9-63004de92466}, !- Zone or ZoneList Name
  SupplyAirTemperature,                   !- Zone Cooling Design Supply Air Temperature Input Method
  14,                                     !- Zone Cooling Design Supply Air Temperature {C}
  11.11,                                  !- Zone Cooling Design Supply Air Temperature Difference {deltaC}
  SupplyAirTemperature,                   !- Zone Heating Design Supply Air Temperature Input Method
  40,                                     !- Zone Heating Design Supply Air Temperature {C}
  11.11,                                  !- Zone Heating Design Supply Air Temperature Difference {deltaC}
  0.0085,                                 !- Zone Cooling Design Supply Air Humidity Ratio {kg-H2O/kg-air}
  0.008,                                  !- Zone Heating Design Supply Air Humidity Ratio {kg-H2O/kg-air}
  ,                                       !- Zone Heating Sizing Factor
  ,                                       !- Zone Cooling Sizing Factor
  DesignDay,                              !- Cooling Design Air Flow Method
  ,                                       !- Cooling Design Air Flow Rate {m3/s}
  ,                                       !- Cooling Minimum Air Flow per Zone Floor Area {m3/s-m2}
  ,                                       !- Cooling Minimum Air Flow {m3/s}
  ,                                       !- Cooling Minimum Air Flow Fraction
  DesignDay,                              !- Heating Design Air Flow Method
  ,                                       !- Heating Design Air Flow Rate {m3/s}
  ,                                       !- Heating Maximum Air Flow per Zone Floor Area {m3/s-m2}
  ,                                       !- Heating Maximum Air Flow {m3/s}
  ,                                       !- Heating Maximum Air Flow Fraction
  No,                                     !- Account for Dedicated Outdoor Air System
  NeutralSupplyAir,                       !- Dedicated Outdoor Air System Control Strategy
  autosize,                               !- Dedicated Outdoor Air Low Setpoint Temperature for Design {C}
  autosize,                               !- Dedicated Outdoor Air High Setpoint Temperature for Design {C}
  Sensible Load Only No Latent Load,      !- Zone Load Sizing Method
  HumidityRatioDifference,                !- Zone Latent Cooling Design Supply Air Humidity Ratio Input Method
  ,                                       !- Zone Dehumidification Design Supply Air Humidity Ratio {kgWater/kgDryAir}
  0.005,                                  !- Zone Cooling Design Supply Air Humidity Ratio Difference {kgWater/kgDryAir}
  HumidityRatioDifference,                !- Zone Latent Heating Design Supply Air Humidity Ratio Input Method
  ,                                       !- Zone Humidification Design Supply Air Humidity Ratio {kgWater/kgDryAir}
  0.005,                                  !- Zone Humidification Design Supply Air Humidity Ratio Difference {kgWater/kgDryAir}
  ,                                       !- Zone Humidistat Dehumidification Set Point Schedule Name
  ,                                       !- Zone Humidistat Humidification Set Point Schedule Name
  ,                                       !- Design Zone Air Distribution Effectiveness in Cooling Mode
  ,                                       !- Design Zone Air Distribution Effectiveness in Heating Mode
  ,                                       !- Design Zone Secondary Recirculation Fraction {dimensionless}
  ,                                       !- Design Minimum Zone Ventilation Efficiency {dimensionless}
  Coincident;                             !- Sizing Option

OS:ZoneHVAC:EquipmentList,
  {f5242409-a3fc-447f-babc-1a7a51710a68}, !- Handle
  Zone HVAC Equipment List 1,             !- Name
  {f0851b6a-e944-42e3-bac9-63004de92466}, !- Thermal Zone
  ,                                       !- Load Distribution Scheme
  {5dff7c22-9456-4c3d-a859-b77c4f844404}, !- Zone Equipment 1
  1,                                      !- Zone Equipment Cooling Sequence 1
  1,                                      !- Zone Equipment Heating or No-Load Sequence 1
  {cc9330f6-2985-4102-9da2-0307dac821fb}, !- Zone Equipment Sequential Cooling Fraction Schedule Name 1
  {0915cc04-812e-46d5-828c-87f5d9e6f978}; !- Zone Equipment Sequential Heating Fraction Schedule Name 1

OS:AdditionalProperties,
  {7f817cb2-8dac-4b1d-9057-a130f458d793}, !- Handle
  {f0851b6a-e944-42e3-bac9-63004de92466}, !- Object Name
  ObjectType,                             !- Feature Name 1
  String,                                 !- Feature Data Type 1
  conditioned space;                      !- Feature Value 1

OS:Space,
  {363fd8f5-b3ae-478d-a354-a10038333a37}, !- Handle
  conditioned space 1,                    !- Name
  ,                                       !- Space Type Name
  ,                                       !- Default Construction Set Name
  ,                                       !- Default Schedule Set Name
  ,                                       !- Direction of Relative North {deg}
  ,                                       !- X Origin {m}
  ,                                       !- Y Origin {m}
  ,                                       !- Z Origin {m}
  ,                                       !- Building Story Name
  {f0851b6a-e944-42e3-bac9-63004de92466}, !- Thermal Zone Name
  ,                                       !- Part of Total Floor Area
  ,                                       !- Design Specification Outdoor Air Object Name
  ,                                       !- Building Unit Name
  692.06373070848;                        !- Volume {m3}

OS:Schedule:Ruleset,
  {d7d6473c-a142-4823-9466-ef9b081ac8a7}, !- Handle
  heating setpoint,                       !- Name
  {3db9181e-bf7e-449d-a824-0d03315ac769}, !- Schedule Type Limits Name
  {17368960-693d-4145-aa7e-c5e1cab0ce0c}; !- Default Day Schedule Name

OS:Schedule:Day,
  {17368960-693d-4145-aa7e-c5e1cab0ce0c}, !- Handle
  heating setpoint default day,           !- Name
  {3db9181e-bf7e-449d-a824-0d03315ac769}, !- Schedule Type Limits Name
  ,                                       !- Interpolate to Timestep
  24,                                     !- Hour 1
  0,                                      !- Minute 1
  0;                                      !- Value Until Time 1

OS:Schedule:Rule,
  {ab38bfd7-af6f-40d9-bea8-3a40f526d689}, !- Handle
  heating setpoint allday rule,           !- Name
  {d7d6473c-a142-4823-9466-ef9b081ac8a7}, !- Schedule Ruleset Name
  0,                                      !- Rule Order
  {bdb3154c-7b20-48d7-a147-1a050157ecc6}, !- Day Schedule Name
  Yes,                                    !- Apply Sunday
  Yes,                                    !- Apply Monday
  Yes,                                    !- Apply Tuesday
  Yes,                                    !- Apply Wednesday
  Yes,                                    !- Apply Thursday
  Yes,                                    !- Apply Friday
  Yes,                                    !- Apply Saturday
  DateRange,                              !- Date Specification Type
  1,                                      !- Start Month
  1,                                      !- Start Day
  12,                                     !- End Month
  31;                                     !- End Day

OS:Schedule:Day,
  {bdb3154c-7b20-48d7-a147-1a050157ecc6}, !- Handle
  heating setpoint day,                   !- Name
  {3db9181e-bf7e-449d-a824-0d03315ac769}, !- Schedule Type Limits Name
  ,                                       !- Interpolate to Timestep
  24,                                     !- Hour 1
  0,                                      !- Minute 1
  20;                                     !- Value Until Time 1

OS:Schedule:Ruleset,
  {2bf36cbf-6a11-4b74-bcda-623bf169a77d}, !- Handle
  cooling setpoint,                       !- Name
  {3db9181e-bf7e-449d-a824-0d03315ac769}, !- Schedule Type Limits Name
  {9b07190e-82e5-4afa-bee2-75d84bcb18b0}; !- Default Day Schedule Name

OS:Schedule:Day,
  {9b07190e-82e5-4afa-bee2-75d84bcb18b0}, !- Handle
  cooling setpoint default day,           !- Name
  {3db9181e-bf7e-449d-a824-0d03315ac769}, !- Schedule Type Limits Name
  ,                                       !- Interpolate to Timestep
  24,                                     !- Hour 1
  0,                                      !- Minute 1
  0;                                      !- Value Until Time 1

OS:Schedule:Rule,
  {2bd732ef-a667-4bdd-8b11-66b7b0e08f93}, !- Handle
  cooling setpoint allday rule,           !- Name
  {2bf36cbf-6a11-4b74-bcda-623bf169a77d}, !- Schedule Ruleset Name
  0,                                      !- Rule Order
  {58c5af5a-59bc-405b-95e9-a9769f0286cb}, !- Day Schedule Name
  Yes,                                    !- Apply Sunday
  Yes,                                    !- Apply Monday
  Yes,                                    !- Apply Tuesday
  Yes,                                    !- Apply Wednesday
  Yes,                                    !- Apply Thursday
  Yes,                                    !- Apply Friday
  Yes,                                    !- Apply Saturday
  DateRange,                              !- Date Specification Type
  1,                                      !- Start Month
  1,                                      !- Start Day
  12,                                     !- End Month
  31;                                     !- End Day

OS:Schedule:Day,
  {58c5af5a-59bc-405b-95e9-a9769f0286cb}, !- Handle
  cooling setpoint day,                   !- Name
  {3db9181e-bf7e-449d-a824-0d03315ac769}, !- Schedule Type Limits Name
  ,                                       !- Interpolate to Timestep
  24,                                     !- Hour 1
  0,                                      !- Minute 1
  25.5555555555556;                       !- Value Until Time 1

OS:ThermostatSetpoint:DualSetpoint,
  {3973dafb-ba35-4761-ba4d-dca52dad4b97}, !- Handle
  conditioned space temperature setpoint, !- Name
  {d7d6473c-a142-4823-9466-ef9b081ac8a7}, !- Heating Setpoint Temperature Schedule Name
  {2bf36cbf-6a11-4b74-bcda-623bf169a77d}, !- Cooling Setpoint Temperature Schedule Name
  0;                                      !- Temperature Difference Between Cutout And Setpoint {deltaC}

OS:ScheduleTypeLimits,
  {3db9181e-bf7e-449d-a824-0d03315ac769}, !- Handle
  Temperature,                            !- Name
  ,                                       !- Lower Limit Value
  ,                                       !- Upper Limit Value
  Continuous,                             !- Numeric Type
  Temperature;                            !- Unit Type

OS:Surface,
  {ca634aed-8477-4318-a8b2-43ebd863d879}, !- Handle
  Roof1,                                  !- Name
  RoofCeiling,                            !- Surface Type
  {1873a959-8047-43b2-9755-a952e465e37d}, !- Construction Name
  {6edb5f3c-9f6d-46ec-8817-5103430a0814}, !- Space Name
  Outdoors,                               !- Outside Boundary Condition
  ,                                       !- Outside Boundary Condition Object
  SunExposed,                             !- Sun Exposure
  WindExposed,                            !- Wind Exposure
  ,                                       !- View Factor to Ground
  ,                                       !- Number of Vertices
  -26.9347048849634, 58.0557891618865, 2.4384, !- X,Y,Z Vertex 1 {m}
  -26.9347048849634, 46.7895631136661, 8.0715130241102, !- X,Y,Z Vertex 2 {m}
  -14.3386812381136, 46.7895631136661, 8.0715130241102, !- X,Y,Z Vertex 3 {m}
  -14.3386812381136, 58.0557891618865, 2.4384; !- X,Y,Z Vertex 4 {m}

OS:AdditionalProperties,
  {73902203-ea2b-48f9-9663-bce564f7595e}, !- Handle
  {ca634aed-8477-4318-a8b2-43ebd863d879}, !- Object Name
  Length,                                 !- Feature Name 1
  Double,                                 !- Feature Data Type 1
  41.325536899113608,                     !- Feature Value 1
  Width,                                  !- Feature Name 2
  Double,                                 !- Feature Data Type 2
  41.325536899113601,                     !- Feature Value 2
  Azimuth,                                !- Feature Name 3
  Integer,                                !- Feature Data Type 3
  0,                                      !- Feature Value 3
  Tilt,                                   !- Feature Name 4
  Double,                                 !- Feature Data Type 4
  0.5,                                    !- Feature Value 4
  SurfaceType,                            !- Feature Name 5
  String,                                 !- Feature Data Type 5
  Roof;                                   !- Feature Value 5

OS:ThermalZone,
  {e3c5e280-f15a-4885-8e51-5c856be8a542}, !- Handle
  attic - vented,                         !- Name
  1,                                      !- Multiplier
  ,                                       !- Ceiling Height {m}
  356.390921899745,                       !- Volume {m3}
  ,                                       !- Floor Area {m2}
  ,                                       !- Zone Inside Convection Algorithm
  ,                                       !- Zone Outside Convection Algorithm
  ,                                       !- Zone Conditioning Equipment List Name
  {d82500ff-3f1d-47b7-9546-500797a057c5}, !- Zone Air Inlet Port List
  {0d28323c-7b9e-4ad9-a5b3-83e2908d4100}, !- Zone Air Exhaust Port List
  {81233b9e-1d12-4fde-9762-1b1d849ddb6f}, !- Zone Air Node Name
  {e8ba20e8-74cf-4ccc-9d60-d07ea943714a}, !- Zone Return Air Port List
  ,                                       !- Primary Daylighting Control Name
  ,                                       !- Fraction of Zone Controlled by Primary Daylighting Control
  ,                                       !- Secondary Daylighting Control Name
  ,                                       !- Fraction of Zone Controlled by Secondary Daylighting Control
  ,                                       !- Illuminance Map Name
  ,                                       !- Group Rendering Name
  ,                                       !- Thermostat Name
  No;                                     !- Use Ideal Air Loads

OS:Node,
  {1658543b-b1f3-4b21-89d5-843612730160}, !- Handle
  Node 2,                                 !- Name
  {81233b9e-1d12-4fde-9762-1b1d849ddb6f}, !- Inlet Port
  ;                                       !- Outlet Port

OS:Connection,
  {81233b9e-1d12-4fde-9762-1b1d849ddb6f}, !- Handle
  {e3c5e280-f15a-4885-8e51-5c856be8a542}, !- Source Object
  11,                                     !- Outlet Port
  {1658543b-b1f3-4b21-89d5-843612730160}, !- Target Object
  2;                                      !- Inlet Port

OS:PortList,
  {d82500ff-3f1d-47b7-9546-500797a057c5}, !- Handle
  {e3c5e280-f15a-4885-8e51-5c856be8a542}; !- HVAC Component

OS:PortList,
  {0d28323c-7b9e-4ad9-a5b3-83e2908d4100}, !- Handle
  {e3c5e280-f15a-4885-8e51-5c856be8a542}; !- HVAC Component

OS:PortList,
  {e8ba20e8-74cf-4ccc-9d60-d07ea943714a}, !- Handle
  {e3c5e280-f15a-4885-8e51-5c856be8a542}; !- HVAC Component

OS:Sizing:Zone,
  {8630a697-9c0e-44fd-9d87-d6bc3fff6f80}, !- Handle
  {e3c5e280-f15a-4885-8e51-5c856be8a542}, !- Zone or ZoneList Name
  SupplyAirTemperature,                   !- Zone Cooling Design Supply Air Temperature Input Method
  14,                                     !- Zone Cooling Design Supply Air Temperature {C}
  11.11,                                  !- Zone Cooling Design Supply Air Temperature Difference {deltaC}
  SupplyAirTemperature,                   !- Zone Heating Design Supply Air Temperature Input Method
  40,                                     !- Zone Heating Design Supply Air Temperature {C}
  11.11,                                  !- Zone Heating Design Supply Air Temperature Difference {deltaC}
  0.0085,                                 !- Zone Cooling Design Supply Air Humidity Ratio {kg-H2O/kg-air}
  0.008,                                  !- Zone Heating Design Supply Air Humidity Ratio {kg-H2O/kg-air}
  ,                                       !- Zone Heating Sizing Factor
  ,                                       !- Zone Cooling Sizing Factor
  DesignDay,                              !- Cooling Design Air Flow Method
  ,                                       !- Cooling Design Air Flow Rate {m3/s}
  ,                                       !- Cooling Minimum Air Flow per Zone Floor Area {m3/s-m2}
  ,                                       !- Cooling Minimum Air Flow {m3/s}
  ,                                       !- Cooling Minimum Air Flow Fraction
  DesignDay,                              !- Heating Design Air Flow Method
  ,                                       !- Heating Design Air Flow Rate {m3/s}
  ,                                       !- Heating Maximum Air Flow per Zone Floor Area {m3/s-m2}
  ,                                       !- Heating Maximum Air Flow {m3/s}
  ,                                       !- Heating Maximum Air Flow Fraction
  No,                                     !- Account for Dedicated Outdoor Air System
  NeutralSupplyAir,                       !- Dedicated Outdoor Air System Control Strategy
  autosize,                               !- Dedicated Outdoor Air Low Setpoint Temperature for Design {C}
  autosize,                               !- Dedicated Outdoor Air High Setpoint Temperature for Design {C}
  Sensible Load Only No Latent Load,      !- Zone Load Sizing Method
  HumidityRatioDifference,                !- Zone Latent Cooling Design Supply Air Humidity Ratio Input Method
  ,                                       !- Zone Dehumidification Design Supply Air Humidity Ratio {kgWater/kgDryAir}
  0.005,                                  !- Zone Cooling Design Supply Air Humidity Ratio Difference {kgWater/kgDryAir}
  HumidityRatioDifference,                !- Zone Latent Heating Design Supply Air Humidity Ratio Input Method
  ,                                       !- Zone Humidification Design Supply Air Humidity Ratio {kgWater/kgDryAir}
  0.005,                                  !- Zone Humidification Design Supply Air Humidity Ratio Difference {kgWater/kgDryAir}
  ,                                       !- Zone Humidistat Dehumidification Set Point Schedule Name
  ,                                       !- Zone Humidistat Humidification Set Point Schedule Name
  ,                                       !- Design Zone Air Distribution Effectiveness in Cooling Mode
  ,                                       !- Design Zone Air Distribution Effectiveness in Heating Mode
  ,                                       !- Design Zone Secondary Recirculation Fraction {dimensionless}
  ,                                       !- Design Minimum Zone Ventilation Efficiency {dimensionless}
  Coincident;                             !- Sizing Option

OS:ZoneHVAC:EquipmentList,
  {e5620e95-7be3-41af-a553-dadaa19643a2}, !- Handle
  Zone HVAC Equipment List 2,             !- Name
  {e3c5e280-f15a-4885-8e51-5c856be8a542}; !- Thermal Zone

OS:AdditionalProperties,
  {abbe0203-c2f7-4cae-8c27-ea8a224532b0}, !- Handle
  {e3c5e280-f15a-4885-8e51-5c856be8a542}, !- Object Name
  ObjectType,                             !- Feature Name 1
  String,                                 !- Feature Data Type 1
  attic - vented;                         !- Feature Value 1

OS:Space,
  {6edb5f3c-9f6d-46ec-8817-5103430a0814}, !- Handle
  attic - vented 1,                       !- Name
  ,                                       !- Space Type Name
  ,                                       !- Default Construction Set Name
  ,                                       !- Default Schedule Set Name
  ,                                       !- Direction of Relative North {deg}
  ,                                       !- X Origin {m}
  ,                                       !- Y Origin {m}