
OS:Version,
  {42fc0b36-fd31-4359-910b-89e01dccf238}, !- Handle
  3.9.0;                                  !- Version Identifier

OS:SimulationControl,
  {d1b992b4-0570-4ad6-ba69-b3b16bcbf41b}, !- Handle
  ,                                       !- Do Zone Sizing Calculation
  ,                                       !- Do System Sizing Calculation
  ,                                       !- Do Plant Sizing Calculation
  No;                                     !- Run Simulation for Sizing Periods

OS:Timestep,
  {732ba591-ec6f-4550-b2b6-c79f43fb74c0}, !- Handle
  1;                                      !- Number of Timesteps per Hour

OS:ShadowCalculation,
  {07df519c-279a-4001-8dee-19dca9517526}, !- Handle
  PolygonClipping,                        !- Shading Calculation Method
  ,                                       !- Shading Calculation Update Frequency Method
  20,                                     !- Shading Calculation Update Frequency
  200,                                    !- Maximum Figures in Shadow Overlap Calculations
  ,                                       !- Polygon Clipping Algorithm
  512,                                    !- Pixel Counting Resolution
  ,                                       !- Sky Diffuse Modeling Algorithm
  No,                                     !- Output External Shading Calculation Results
  No,                                     !- Disable Self-Shading Within Shading Zone Groups
  No;                                     !- Disable Self-Shading From Shading Zone Groups to Other Zones

OS:SurfaceConvectionAlgorithm:Outside,
  {95047b20-7a20-4804-a784-d3411b99229f}, !- Handle
  DOE-2;                                  !- Algorithm

OS:SurfaceConvectionAlgorithm:Inside,
  {5322ff61-4abe-4f03-8506-40d6d418f717}, !- Handle
  TARP;                                   !- Algorithm

OS:ZoneCapacitanceMultiplier:ResearchSpecial,
  {ca11218c-6cfc-4863-8a60-bf117d454096}, !- Handle
  7,                                      !- Temperature Capacity Multiplier
  15,                                     !- Humidity Capacity Multiplier
  ;                                       !- Carbon Dioxide Capacity Multiplier

OS:ConvergenceLimits,
  {23c72dee-2c8b-4bab-bd80-3b7015033fb6}, !- Handle
  0;                                      !- Minimum System Timestep {minutes}

OS:RunPeriod,
  {8fa5e0c0-9a72-4344-8b9c-50e846391bc0}, !- Handle
  Run Period 1,                           !- Name
  1,                                      !- Begin Month
  1,                                      !- Begin Day of Month
  12,                                     !- End Month
  31,                                     !- End Day of Month
  ,                                       !- Use Weather File Holidays and Special Days
  ,                                       !- Use Weather File Daylight Saving Period
  ,                                       !- Apply Weekend Holiday Rule
  ,                                       !- Use Weather File Rain Indicators
  ,                                       !- Use Weather File Snow Indicators
  ;                                       !- Number of Times Runperiod to be Repeated

OS:PerformancePrecisionTradeoffs,
  {949953e2-311b-4cf3-a88f-2506dd69c7d6}, !- Handle
  ,                                       !- Use Coil Direct Solutions
  CarrollMRT;                             !- Zone Radiant Exchange Algorithm

OS:WeatherFile,
  {6343ae58-48a4-45b9-8271-2db723cdd1c1}, !- Handle
  Buffalo Niagara Intl Ap,                !- City
  NY,                                     !- State Province Region
  USA,                                    !- Country
  TMY3,                                   !- Data Source
  725280,                                 !- WMO Number
  42.93,                                  !- Latitude {deg}
  -78.73,                                 !- Longitude {deg}
  -5,                                     !- Time Zone {hr}
  215,                                    !- Elevation {m}
  /Users/nmoore/github/urbanopt-example-geojson-project/example_project/weather/USA_NY_Buffalo-Greater.Buffalo.Intl.AP.725280_TMY3.epw, !- Url
  6B50E0FF,                               !- Checksum
  ,                                       !- Start Date Actual Year
  Sunday;                                 !- Start Day of Week

OS:YearDescription,
  {6044f25c-7e8a-4799-9130-87a705ca716b}, !- Handle
  2007,                                   !- Calendar Year
  ,                                       !- Day of Week for Start Day
  ;                                       !- Is Leap Year

OS:Site,
  {b6b71e59-a78c-48a8-938f-aca05e3e5508}, !- Handle
  Buffalo Niagara Intl Ap_NY,             !- Name
  42.93,                                  !- Latitude {deg}
  -78.73,                                 !- Longitude {deg}
  -5,                                     !- Time Zone {hr}
  215,                                    !- Elevation {m}
  Suburbs,                                !- Terrain
  Yes;                                    !- Keep Site Location Information

OS:RunPeriodControl:DaylightSavingTime,
  {d6e696bc-2cc0-4d37-b55f-d4da2d595a4d}, !- Handle
  Mar 12,                                 !- Start Date
  Nov 5;                                  !- End Date

OS:Site:GroundTemperature:Shallow,
  {f3d240bf-cf45-4d43-9f50-5ae4f3eb7388}, !- Handle
  4.30207395723828,                       !- January Surface Ground Temperature {C}
  2.29327249652502,                       !- February Surface Ground Temperature {C}
  2.13240047156047,                       !- March Surface Ground Temperature {C}
  3.08567940719286,                       !- April Surface Ground Temperature {C}
  6.91256312497526,                       !- May Surface Ground Temperature {C}
  10.7216195949507,                       !- June Surface Ground Temperature {C}
  14.0238679822574,                       !- July Surface Ground Temperature {C}
  16.1157611184724,                       !- August Surface Ground Temperature {C}
  16.2934789303462,                       !- September Surface Ground Temperature {C}
  14.5920754632847,                       !- October Surface Ground Temperature {C}
  11.374036348653,                        !- November Surface Ground Temperature {C}
  7.68182621661674;                       !- December Surface Ground Temperature {C}

OS:Site:GroundTemperature:Deep,
  {03ae3b16-1414-418a-92ee-1a82cb58b1fd}, !- Handle
  10,                                     !- January Deep Ground Temperature {C}
  10,                                     !- February Deep Ground Temperature {C}
  10,                                     !- March Deep Ground Temperature {C}
  10,                                     !- April Deep Ground Temperature {C}
  10,                                     !- May Deep Ground Temperature {C}
  10,                                     !- June Deep Ground Temperature {C}
  10,                                     !- July Deep Ground Temperature {C}
  10,                                     !- August Deep Ground Temperature {C}
  10,                                     !- September Deep Ground Temperature {C}
  10,                                     !- October Deep Ground Temperature {C}
  10,                                     !- November Deep Ground Temperature {C}
  10;                                     !- December Deep Ground Temperature {C}

OS:ThermalZone,
  {3058998b-7f55-481d-aec7-8e2fcaca8343}, !- Handle
  conditioned space,                      !- Name
  1,                                      !- Multiplier
  ,                                       !- Ceiling Height {m}
  692.06373070848,                        !- Volume {m3}
  ,                                       !- Floor Area {m2}
  ,                                       !- Zone Inside Convection Algorithm
  ,                                       !- Zone Outside Convection Algorithm
  ,                                       !- Zone Conditioning Equipment List Name
  {4ebe2c4c-fd7f-4519-9c5b-111b7eb8b620}, !- Zone Air Inlet Port List
  {5b36ecb5-5e1d-4c0e-bb73-80ce0b8cca20}, !- Zone Air Exhaust Port List
  {ed1535d8-6392-4881-807f-5d71819316f0}, !- Zone Air Node Name
  {70a31255-a016-4db3-a643-62531b9d0958}, !- Zone Return Air Port List
  ,                                       !- Primary Daylighting Control Name
  ,                                       !- Fraction of Zone Controlled by Primary Daylighting Control
  ,                                       !- Secondary Daylighting Control Name
  ,                                       !- Fraction of Zone Controlled by Secondary Daylighting Control
  ,                                       !- Illuminance Map Name
  ,                                       !- Group Rendering Name
  {bd8096b7-a8bb-470e-b425-a64e9b22c72b}, !- Thermostat Name
  No;                                     !- Use Ideal Air Loads

OS:Node,
  {dcbf7c53-19eb-4f05-901f-14630ebfdf5f}, !- Handle
  Node 1,                                 !- Name
  {ed1535d8-6392-4881-807f-5d71819316f0}, !- Inlet Port
  ;                                       !- Outlet Port

OS:Connection,
  {ed1535d8-6392-4881-807f-5d71819316f0}, !- Handle
  {3058998b-7f55-481d-aec7-8e2fcaca8343}, !- Source Object
  11,                                     !- Outlet Port
  {dcbf7c53-19eb-4f05-901f-14630ebfdf5f}, !- Target Object
  2;                                      !- Inlet Port

OS:PortList,
  {4ebe2c4c-fd7f-4519-9c5b-111b7eb8b620}, !- Handle
  {3058998b-7f55-481d-aec7-8e2fcaca8343}, !- HVAC Component
  {96807ad1-d21e-4f25-9500-849a6a987963}; !- Port 1

OS:PortList,
  {5b36ecb5-5e1d-4c0e-bb73-80ce0b8cca20}, !- Handle
  {3058998b-7f55-481d-aec7-8e2fcaca8343}; !- HVAC Component

OS:PortList,
  {70a31255-a016-4db3-a643-62531b9d0958}, !- Handle
  {3058998b-7f55-481d-aec7-8e2fcaca8343}, !- HVAC Component
  {d74b0a52-e738-4eeb-bd08-18698e580320}; !- Port 1

OS:Sizing:Zone,
  {0df5b695-c5c1-48cc-8648-6dd8ac3f3967}, !- Handle
  {3058998b-7f55-481d-aec7-8e2fcaca8343}, !- Zone or ZoneList Name
  SupplyAirTemperature,                   !- Zone Cooling Design Supply Air Temperature Input Method
  14,                                     !- Zone Cooling Design Supply Air Temperature {C}
  11.11,                                  !- Zone Cooling Design Supply Air Temperature Difference {deltaC}
  SupplyAirTemperature,                   !- Zone Heating Design Supply Air Temperature Input Method
  40,                                     !- Zone Heating Design Supply Air Temperature {C}
  11.11,                                  !- Zone Heating Design Supply Air Temperature Difference {deltaC}
  0.0085,                                 !- Zone Cooling Design Supply Air Humidity Ratio {kg-H2O/kg-air}
  0.008,                                  !- Zone Heating Design Supply Air Humidity Ratio {kg-H2O/kg-air}
  ,                                       !- Zone Heating Sizing Factor
  ,                                       !- Zone Cooling Sizing Factor
  DesignDay,                              !- Cooling Design Air Flow Method
  ,                                       !- Cooling Design Air Flow Rate {m3/s}
  ,                                       !- Cooling Minimum Air Flow per Zone Floor Area {m3/s-m2}
  ,                                       !- Cooling Minimum Air Flow {m3/s}
  ,                                       !- Cooling Minimum Air Flow Fraction
  DesignDay,                              !- Heating Design Air Flow Method
  ,                                       !- Heating Design Air Flow Rate {m3/s}
  ,                                       !- Heating Maximum Air Flow per Zone Floor Area {m3/s-m2}
  ,                                       !- Heating Maximum Air Flow {m3/s}
  ,                                       !- Heating Maximum Air Flow Fraction
  No,                                     !- Account for Dedicated Outdoor Air System
  NeutralSupplyAir,                       !- Dedicated Outdoor Air System Control Strategy
  autosize,                               !- Dedicated Outdoor Air Low Setpoint Temperature for Design {C}
  autosize,                               !- Dedicated Outdoor Air High Setpoint Temperature for Design {C}
  Sensible Load Only No Latent Load,      !- Zone Load Sizing Method
  HumidityRatioDifference,                !- Zone Latent Cooling Design Supply Air Humidity Ratio Input Method
  ,                                       !- Zone Dehumidification Design Supply Air Humidity Ratio {kgWater/kgDryAir}
  0.005,                                  !- Zone Cooling Design Supply Air Humidity Ratio Difference {kgWater/kgDryAir}
  HumidityRatioDifference,                !- Zone Latent Heating Design Supply Air Humidity Ratio Input Method
  ,                                       !- Zone Humidification Design Supply Air Humidity Ratio {kgWater/kgDryAir}
  0.005,                                  !- Zone Humidification Design Supply Air Humidity Ratio Difference {kgWater/kgDryAir}
  ,                                       !- Zone Humidistat Dehumidification Set Point Schedule Name
  ,                                       !- Zone Humidistat Humidification Set Point Schedule Name
  ,                                       !- Design Zone Air Distribution Effectiveness in Cooling Mode
  ,                                       !- Design Zone Air Distribution Effectiveness in Heating Mode
  ,                                       !- Design Zone Secondary Recirculation Fraction {dimensionless}
  ,                                       !- Design Minimum Zone Ventilation Efficiency {dimensionless}
  Coincident;                             !- Sizing Option

OS:ZoneHVAC:EquipmentList,
  {784e5a9f-070b-4110-9993-033ca5f6dd8d}, !- Handle
  Zone HVAC Equipment List 1,             !- Name
  {3058998b-7f55-481d-aec7-8e2fcaca8343}, !- Thermal Zone
  ,                                       !- Load Distribution Scheme
  {0b337272-9ddc-4b21-87ee-23046775059a}, !- Zone Equipment 1
  1,                                      !- Zone Equipment Cooling Sequence 1
  1,                                      !- Zone Equipment Heating or No-Load Sequence 1
  {dcaa1083-f5a4-44a1-8bf0-56580b7c1b2e}, !- Zone Equipment Sequential Cooling Fraction Schedule Name 1
  {860aabfd-829a-4efb-a3e5-582bfe74f043}; !- Zone Equipment Sequential Heating Fraction Schedule Name 1

OS:AdditionalProperties,
  {fd975dca-f12b-458b-8697-5dc598bb6063}, !- Handle
  {3058998b-7f55-481d-aec7-8e2fcaca8343}, !- Object Name
  ObjectType,                             !- Feature Name 1
  String,                                 !- Feature Data Type 1
  conditioned space;                      !- Feature Value 1

OS:Space,
  {1b3ffd7c-ff44-4aba-9714-f41d4bb72a2c}, !- Handle
  conditioned space 1,                    !- Name
  ,                                       !- Space Type Name
  ,                                       !- Default Construction Set Name
  ,                                       !- Default Schedule Set Name
  ,                                       !- Direction of Relative North {deg}
  ,                                       !- X Origin {m}
  ,                                       !- Y Origin {m}
  ,                                       !- Z Origin {m}
  ,                                       !- Building Story Name
  {3058998b-7f55-481d-aec7-8e2fcaca8343}, !- Thermal Zone Name
  ,                                       !- Part of Total Floor Area
  ,                                       !- Design Specification Outdoor Air Object Name
  ,                                       !- Building Unit Name
  692.06373070848;                        !- Volume {m3}

OS:Schedule:Ruleset,
  {1bd68f22-8a26-4a00-a299-d8ffaa9a68db}, !- Handle
  heating setpoint,                       !- Name
  {89424db7-4ee5-448b-90dd-803ec9f2844a}, !- Schedule Type Limits Name
  {3ed7a09a-7b04-4800-b1e5-854760a660e2}; !- Default Day Schedule Name

OS:Schedule:Day,
  {3ed7a09a-7b04-4800-b1e5-854760a660e2}, !- Handle
  heating setpoint default day,           !- Name
  {89424db7-4ee5-448b-90dd-803ec9f2844a}, !- Schedule Type Limits Name
  ,                                       !- Interpolate to Timestep
  24,                                     !- Hour 1
  0,                                      !- Minute 1
  0;                                      !- Value Until Time 1

OS:Schedule:Rule,
  {12399cf5-1f50-4cbc-962f-b194bbaf3d52}, !- Handle
  heating setpoint allday rule,           !- Name
  {1bd68f22-8a26-4a00-a299-d8ffaa9a68db}, !- Schedule Ruleset Name
  0,                                      !- Rule Order
  {ae24cb11-7eee-46f9-aada-d4835ba2b36e}, !- Day Schedule Name
  Yes,                                    !- Apply Sunday
  Yes,                                    !- Apply Monday
  Yes,                                    !- Apply Tuesday
  Yes,                                    !- Apply Wednesday
  Yes,                                    !- Apply Thursday
  Yes,                                    !- Apply Friday
  Yes,                                    !- Apply Saturday
  DateRange,                              !- Date Specification Type
  1,                                      !- Start Month
  1,                                      !- Start Day
  12,                                     !- End Month
  31;                                     !- End Day

OS:Schedule:Day,
  {ae24cb11-7eee-46f9-aada-d4835ba2b36e}, !- Handle
  heating setpoint day,                   !- Name
  {89424db7-4ee5-448b-90dd-803ec9f2844a}, !- Schedule Type Limits Name
  ,                                       !- Interpolate to Timestep
  24,                                     !- Hour 1
  0,                                      !- Minute 1
  20;                                     !- Value Until Time 1

OS:Schedule:Ruleset,
  {754dc115-089a-4b66-afe4-4f11a0de3729}, !- Handle
  cooling setpoint,                       !- Name
  {89424db7-4ee5-448b-90dd-803ec9f2844a}, !- Schedule Type Limits Name
  {038c9749-7fba-473c-a3da-b14987bea3b7}; !- Default Day Schedule Name

OS:Schedule:Day,
  {038c9749-7fba-473c-a3da-b14987bea3b7}, !- Handle
  cooling setpoint default day,           !- Name
  {89424db7-4ee5-448b-90dd-803ec9f2844a}, !- Schedule Type Limits Name
  ,                                       !- Interpolate to Timestep
  24,                                     !- Hour 1
  0,                                      !- Minute 1
  0;                                      !- Value Until Time 1

OS:Schedule:Rule,
  {ee73824f-0441-4618-ba9c-cbcb69da6462}, !- Handle
  cooling setpoint allday rule,           !- Name
  {754dc115-089a-4b66-afe4-4f11a0de3729}, !- Schedule Ruleset Name
  0,                                      !- Rule Order
  {0e6dd79e-767f-454d-a089-e532a100897e}, !- Day Schedule Name
  Yes,                                    !- Apply Sunday
  Yes,                                    !- Apply Monday
  Yes,                                    !- Apply Tuesday
  Yes,                                    !- Apply Wednesday
  Yes,                                    !- Apply Thursday
  Yes,                                    !- Apply Friday
  Yes,                                    !- Apply Saturday
  DateRange,                              !- Date Specification Type
  1,                                      !- Start Month
  1,                                      !- Start Day
  12,                                     !- End Month
  31;                                     !- End Day

OS:Schedule:Day,
  {0e6dd79e-767f-454d-a089-e532a100897e}, !- Handle
  cooling setpoint day,                   !- Name
  {89424db7-4ee5-448b-90dd-803ec9f2844a}, !- Schedule Type Limits Name
  ,                                       !- Interpolate to Timestep
  24,                                     !- Hour 1
  0,                                      !- Minute 1
  25.5555555555556;                       !- Value Until Time 1

OS:ThermostatSetpoint:DualSetpoint,
  {bd8096b7-a8bb-470e-b425-a64e9b22c72b}, !- Handle
  conditioned space temperature setpoint, !- Name
  {1bd68f22-8a26-4a00-a299-d8ffaa9a68db}, !- Heating Setpoint Temperature Schedule Name
  {754dc115-089a-4b66-afe4-4f11a0de3729}, !- Cooling Setpoint Temperature Schedule Name
  0;                                      !- Temperature Difference Between Cutout And Setpoint {deltaC}

OS:ScheduleTypeLimits,
  {89424db7-4ee5-448b-90dd-803ec9f2844a}, !- Handle
  Temperature,                            !- Name
  ,                                       !- Lower Limit Value
  ,                                       !- Upper Limit Value
  Continuous,                             !- Numeric Type
  Temperature;                            !- Unit Type

OS:Surface,
  {93f1140c-8ca5-4261-b697-5cae0e98369c}, !- Handle
  Roof1,                                  !- Name
  RoofCeiling,                            !- Surface Type
  {49305bd4-488a-4d6a-b4ef-d36da657ddd7}, !- Construction Name
  {91eadfc6-0395-4dc2-9c43-fdfa68a68935}, !- Space Name
  Outdoors,                               !- Outside Boundary Condition
  ,                                       !- Outside Boundary Condition Object
  SunExposed,                             !- Sun Exposure
  WindExposed,                            !- Wind Exposure
  ,                                       !- View Factor to Ground
  ,                                       !- Number of Vertices
  -26.9347048849634, 58.0557891618865, 2.4384, !- X,Y,Z Vertex 1 {m}
  -26.9347048849634, 46.7895631136661, 8.0715130241102, !- X,Y,Z Vertex 2 {m}
  -14.3386812381136, 46.7895631136661, 8.0715130241102, !- X,Y,Z Vertex 3 {m}
  -14.3386812381136, 58.0557891618865, 2.4384; !- X,Y,Z Vertex 4 {m}

OS:AdditionalProperties,
  {cda4de22-ea67-445c-afa1-b0e5c2607799}, !- Handle
  {93f1140c-8ca5-4261-b697-5cae0e98369c}, !- Object Name
  Length,                                 !- Feature Name 1
  Double,                                 !- Feature Data Type 1
  41.325536899113608,                     !- Feature Value 1
  Width,                                  !- Feature Name 2
  Double,                                 !- Feature Data Type 2
  41.325536899113601,                     !- Feature Value 2
  Azimuth,                                !- Feature Name 3
  Integer,                                !- Feature Data Type 3
  0,                                      !- Feature Value 3
  Tilt,                                   !- Feature Name 4
  Double,                                 !- Feature Data Type 4
  0.5,                                    !- Feature Value 4
  SurfaceType,                            !- Feature Name 5
  String,                                 !- Feature Data Type 5
  Roof;                                   !- Feature Value 5

OS:ThermalZone,
  {e53129cc-1a30-4323-aead-6a5a0515b15b}, !- Handle
  attic - vented,                         !- Name
  1,                                      !- Multiplier
  ,                                       !- Ceiling Height {m}
  356.389957095237,                       !- Volume {m3}
  ,                                       !- Floor Area {m2}
  ,                                       !- Zone Inside Convection Algorithm
  ,                                       !- Zone Outside Convection Algorithm
  ,                                       !- Zone Conditioning Equipment List Name
  {5b68b68c-e77e-4f7f-89a8-a26b2075ab0f}, !- Zone Air Inlet Port List
  {b65d449e-8eb3-40d0-9265-ec3f3d2b7b0d}, !- Zone Air Exhaust Port List
  {ffa37c24-5e03-4990-b253-41f93a48d33e}, !- Zone Air Node Name
  {19777e18-dd0b-40c1-b86b-ade4fc75b950}, !- Zone Return Air Port List
  ,                                       !- Primary Daylighting Control Name
  ,                                       !- Fraction of Zone Controlled by Primary Daylighting Control
  ,                                       !- Secondary Daylighting Control Name
  ,                                       !- Fraction of Zone Controlled by Secondary Daylighting Control
  ,                                       !- Illuminance Map Name
  ,                                       !- Group Rendering Name
  ,                                       !- Thermostat Name
  No;                                     !- Use Ideal Air Loads

OS:Node,
  {00358953-cfac-418c-b3c7-21f6d811127b}, !- Handle
  Node 2,                                 !- Name
  {ffa37c24-5e03-4990-b253-41f93a48d33e}, !- Inlet Port
  ;                                       !- Outlet Port

OS:Connection,
  {ffa37c24-5e03-4990-b253-41f93a48d33e}, !- Handle
  {e53129cc-1a30-4323-aead-6a5a0515b15b}, !- Source Object
  11,                                     !- Outlet Port
  {00358953-cfac-418c-b3c7-21f6d811127b}, !- Target Object
  2;                                      !- Inlet Port

OS:PortList,
  {5b68b68c-e77e-4f7f-89a8-a26b2075ab0f}, !- Handle
  {e53129cc-1a30-4323-aead-6a5a0515b15b}; !- HVAC Component

OS:PortList,
  {b65d449e-8eb3-40d0-9265-ec3f3d2b7b0d}, !- Handle
  {e53129cc-1a30-4323-aead-6a5a0515b15b}; !- HVAC Component

OS:PortList,
  {19777e18-dd0b-40c1-b86b-ade4fc75b950}, !- Handle
  {e53129cc-1a30-4323-aead-6a5a0515b15b}; !- HVAC Component

OS:Sizing:Zone,
  {97ec874f-0b15-4474-a5cf-75bf18d11cea}, !- Handle
  {e53129cc-1a30-4323-aead-6a5a0515b15b}, !- Zone or ZoneList Name
  SupplyAirTemperature,                   !- Zone Cooling Design Supply Air Temperature Input Method
  14,                                     !- Zone Cooling Design Supply Air Temperature {C}
  11.11,                                  !- Zone Cooling Design Supply Air Temperature Difference {deltaC}
  SupplyAirTemperature,                   !- Zone Heating Design Supply Air Temperature Input Method
  40,                                     !- Zone Heating Design Supply Air Temperature {C}
  11.11,                                  !- Zone Heating Design Supply Air Temperature Difference {deltaC}
  0.0085,                                 !- Zone Cooling Design Supply Air Humidity Ratio {kg-H2O/kg-air}
  0.008,                                  !- Zone Heating Design Supply Air Humidity Ratio {kg-H2O/kg-air}
  ,                                       !- Zone Heating Sizing Factor
  ,                                       !- Zone Cooling Sizing Factor
  DesignDay,                              !- Cooling Design Air Flow Method
  ,                                       !- Cooling Design Air Flow Rate {m3/s}
  ,                                       !- Cooling Minimum Air Flow per Zone Floor Area {m3/s-m2}
  ,                                       !- Cooling Minimum Air Flow {m3/s}
  ,                                       !- Cooling Minimum Air Flow Fraction
  DesignDay,                              !- Heating Design Air Flow Method
  ,                                       !- Heating Design Air Flow Rate {m3/s}
  ,                                       !- Heating Maximum Air Flow per Zone Floor Area {m3/s-m2}
  ,                                       !- Heating Maximum Air Flow {m3/s}
  ,                                       !- Heating Maximum Air Flow Fraction
  No,                                     !- Account for Dedicated Outdoor Air System
  NeutralSupplyAir,                       !- Dedicated Outdoor Air System Control Strategy
  autosize,                               !- Dedicated Outdoor Air Low Setpoint Temperature for Design {C}
  autosize,                               !- Dedicated Outdoor Air High Setpoint Temperature for Design {C}
  Sensible Load Only No Latent Load,      !- Zone Load Sizing Method
  HumidityRatioDifference,                !- Zone Latent Cooling Design Supply Air Humidity Ratio Input Method
  ,                                       !- Zone Dehumidification Design Supply Air Humidity Ratio {kgWater/kgDryAir}
  0.005,                                  !- Zone Cooling Design Supply Air Humidity Ratio Difference {kgWater/kgDryAir}
  HumidityRatioDifference,                !- Zone Latent Heating Design Supply Air Humidity Ratio Input Method
  ,                                       !- Zone Humidification Design Supply Air Humidity Ratio {kgWater/kgDryAir}
  0.005,                                  !- Zone Humidification Design Supply Air Humidity Ratio Difference {kgWater/kgDryAir}
  ,                                       !- Zone Humidistat Dehumidification Set Point Schedule Name
  ,                                       !- Zone Humidistat Humidification Set Point Schedule Name
  ,                                       !- Design Zone Air Distribution Effectiveness in Cooling Mode
  ,                                       !- Design Zone Air Distribution Effectiveness in Heating Mode
  ,                                       !- Design Zone Secondary Recirculation Fraction {dimensionless}
  ,                                       !- Design Minimum Zone Ventilation Efficiency {dimensionless}
  Coincident;                             !- Sizing Option

OS:ZoneHVAC:EquipmentList,
  {a5b0865b-e933-4b6b-9325-ecb0d69dbd2e}, !- Handle
  Zone HVAC Equipment List 2,             !- Name
  {e53129cc-1a30-4323-aead-6a5a0515b15b}; !- Thermal Zone

OS:AdditionalProperties,
  {b1c7fe94-783f-4c96-88db-e50aa2049cb4}, !- Handle
  {e53129cc-1a30-4323-aead-6a5a0515b15b}, !- Object Name
  ObjectType,                             !- Feature Name 1
  String,                                 !- Feature Data Type 1
  attic - vented;                         !- Feature Value 1

OS:Space,
  {91eadfc6-0395-4dc2-9c43-fdfa68a68935}, !- Handle
  attic - vented 1,                       !- Name
  ,                                       !- Space Type Name
  ,                                       !- Default Construction Set Name
  ,                                       !- Default Schedule Set Name
  ,                                       !- Direction of Relative North {deg}
  ,                                       !- X Origin {m}
  ,                                       !- Y Origin {m}