
OS:Version,
  {ef8c2377-ab28-4fdb-9398-ee33fd78020b}, !- Handle
  3.10.0;                                 !- Version Identifier

OS:SimulationControl,
  {2c80437b-1ae6-4c3e-9cbc-56cfaf2bd369}, !- Handle
  ,                                       !- Do Zone Sizing Calculation
  ,                                       !- Do System Sizing Calculation
  ,                                       !- Do Plant Sizing Calculation
  No;                                     !- Run Simulation for Sizing Periods

OS:Timestep,
  {2582ead1-1fda-43d4-b499-8cb9dde248a3}, !- Handle
  1;                                      !- Number of Timesteps per Hour

OS:ShadowCalculation,
  {1b284b80-8bb1-41f5-b161-8efdf9dd6cda}, !- Handle
  PolygonClipping,                        !- Shading Calculation Method
  ,                                       !- Shading Calculation Update Frequency Method
  20,                                     !- Shading Calculation Update Frequency
  200,                                    !- Maximum Figures in Shadow Overlap Calculations
  ,                                       !- Polygon Clipping Algorithm
  512,                                    !- Pixel Counting Resolution
  ,                                       !- Sky Diffuse Modeling Algorithm
  No,                                     !- Output External Shading Calculation Results
  No,                                     !- Disable Self-Shading Within Shading Zone Groups
  No;                                     !- Disable Self-Shading From Shading Zone Groups to Other Zones

OS:SurfaceConvectionAlgorithm:Outside,
  {17eef7d5-3373-4c95-85a9-ab77544c4181}, !- Handle
  DOE-2;                                  !- Algorithm

OS:SurfaceConvectionAlgorithm:Inside,
  {24e086a0-dc81-4c95-b63d-95bd2c589e76}, !- Handle
  TARP;                                   !- Algorithm

OS:ZoneCapacitanceMultiplier:ResearchSpecial,
  {12081490-a43d-4b7e-8fac-6e9ce9fe20cb}, !- Handle
  7,                                      !- Temperature Capacity Multiplier
  15,                                     !- Humidity Capacity Multiplier
  ;                                       !- Carbon Dioxide Capacity Multiplier

OS:ConvergenceLimits,
  {02454e1c-a4f7-4ef6-8bcf-40349e12e43c}, !- Handle
  0;                                      !- Minimum System Timestep {minutes}

OS:RunPeriod,
  {ee587d16-938d-4a17-8c5a-deee0da6c8c1}, !- Handle
  Run Period 1,                           !- Name
  1,                                      !- Begin Month
  1,                                      !- Begin Day of Month
  12,                                     !- End Month
  31,                                     !- End Day of Month
  ,                                       !- Use Weather File Holidays and Special Days
  ,                                       !- Use Weather File Daylight Saving Period
  ,                                       !- Apply Weekend Holiday Rule
  ,                                       !- Use Weather File Rain Indicators
  ,                                       !- Use Weather File Snow Indicators
  ;                                       !- Number of Times Runperiod to be Repeated

OS:PerformancePrecisionTradeoffs,
  {855bd7b9-9117-4aad-9af5-783e58c92e02}, !- Handle
  ,                                       !- Use Coil Direct Solutions
  CarrollMRT;                             !- Zone Radiant Exchange Algorithm

OS:WeatherFile,
  {a80780ac-5892-4a4c-a27d-8de8917ad2b0}, !- Handle
  Buffalo Niagara Intl Ap,                !- City
  NY,                                     !- State Province Region
  USA,                                    !- Country
  TMY3,                                   !- Data Source
  725280,                                 !- WMO Number
  42.93,                                  !- Latitude {deg}
  -78.73,                                 !- Longitude {deg}
  -5,                                     !- Time Zone {hr}
  215,                                    !- Elevation {m}
  /Users/nmoore/github/urbanopt-example-geojson-project/example_project/weather/USA_NY_Buffalo-Greater.Buffalo.Intl.AP.725280_TMY3.epw, !- Url
  6B50E0FF,                               !- Checksum
  ,                                       !- Start Date Actual Year
  Sunday;                                 !- Start Day of Week

OS:YearDescription,
  {eb0f169a-9dbd-4328-9b38-94ea572c46fb}, !- Handle
  2007,                                   !- Calendar Year
  ,                                       !- Day of Week for Start Day
  ;                                       !- Is Leap Year

OS:Site,
  {194687be-ee65-4158-982b-8c8c3bbdb1f4}, !- Handle
  Buffalo Niagara Intl Ap_NY,             !- Name
  42.93,                                  !- Latitude {deg}
  -78.73,                                 !- Longitude {deg}
  -5,                                     !- Time Zone {hr}
  215,                                    !- Elevation {m}
  Suburbs,                                !- Terrain
  Yes;                                    !- Keep Site Location Information

OS:RunPeriodControl:DaylightSavingTime,
  {6e2b09f4-74a0-4c63-b4e4-4cc2f00190a0}, !- Handle
  Mar 12,                                 !- Start Date
  Nov 5;                                  !- End Date

OS:Site:GroundTemperature:Shallow,
  {3d3bda8e-90a4-41dc-9735-0fc56cdfec2b}, !- Handle
  4.30207395723828,                       !- January Surface Ground Temperature {C}
  2.29327249652502,                       !- February Surface Ground Temperature {C}
  2.13240047156047,                       !- March Surface Ground Temperature {C}
  3.08567940719286,                       !- April Surface Ground Temperature {C}
  6.91256312497526,                       !- May Surface Ground Temperature {C}
  10.7216195949507,                       !- June Surface Ground Temperature {C}
  14.0238679822574,                       !- July Surface Ground Temperature {C}
  16.1157611184724,                       !- August Surface Ground Temperature {C}
  16.2934789303462,                       !- September Surface Ground Temperature {C}
  14.5920754632847,                       !- October Surface Ground Temperature {C}
  11.374036348653,                        !- November Surface Ground Temperature {C}
  7.68182621661674;                       !- December Surface Ground Temperature {C}

OS:ThermalZone,
  {21029425-4d23-411f-8ff1-43d850736403}, !- Handle
  conditioned space,                      !- Name
  1,                                      !- Multiplier
  ,                                       !- Ceiling Height {m}
  475.79381486208,                        !- Volume {m3}
  ,                                       !- Floor Area {m2}
  ,                                       !- Zone Inside Convection Algorithm
  ,                                       !- Zone Outside Convection Algorithm
  ,                                       !- Zone Conditioning Equipment List Name
  {26f9d9c9-0754-44ba-818f-29e2225b70f7}, !- Zone Air Inlet Port List
  {df8c576e-561d-45a0-b237-44b0da38e2a6}, !- Zone Air Exhaust Port List
  {52de2982-fce9-4cf6-bf66-d48375b059b0}, !- Zone Air Node Name
  {62fa6340-90bf-44c8-b551-0e631240699c}, !- Zone Return Air Port List
  ,                                       !- Primary Daylighting Control Name
  ,                                       !- Fraction of Zone Controlled by Primary Daylighting Control
  ,                                       !- Secondary Daylighting Control Name
  ,                                       !- Fraction of Zone Controlled by Secondary Daylighting Control
  ,                                       !- Illuminance Map Name
  ,                                       !- Group Rendering Name
  {2bcd6191-4702-4abc-b932-3e64ecf04878}, !- Thermostat Name
  No;                                     !- Use Ideal Air Loads

OS:Node,
  {6412f06e-8f3f-44df-8a9d-64527ddc90f7}, !- Handle
  Node 1,                                 !- Name
  {52de2982-fce9-4cf6-bf66-d48375b059b0}, !- Inlet Port
  ;                                       !- Outlet Port

OS:Connection,
  {52de2982-fce9-4cf6-bf66-d48375b059b0}, !- Handle
  {21029425-4d23-411f-8ff1-43d850736403}, !- Source Object
  11,                                     !- Outlet Port
  {6412f06e-8f3f-44df-8a9d-64527ddc90f7}, !- Target Object
  2;                                      !- Inlet Port

OS:PortList,
  {26f9d9c9-0754-44ba-818f-29e2225b70f7}, !- Handle
  {21029425-4d23-411f-8ff1-43d850736403}, !- HVAC Component
  {1d9f0ee8-a118-4aca-a504-af543b357272}; !- Port 1

OS:PortList,
  {df8c576e-561d-45a0-b237-44b0da38e2a6}, !- Handle
  {21029425-4d23-411f-8ff1-43d850736403}; !- HVAC Component

OS:PortList,
  {62fa6340-90bf-44c8-b551-0e631240699c}, !- Handle
  {21029425-4d23-411f-8ff1-43d850736403}, !- HVAC Component
  {4ec8d135-ecc9-42c4-b1d0-67e1ab8b9a45}; !- Port 1

OS:Sizing:Zone,
  {10cdf33a-90e8-47d4-a10f-85179de8586c}, !- Handle
  {21029425-4d23-411f-8ff1-43d850736403}, !- Zone or ZoneList Name
  SupplyAirTemperature,                   !- Zone Cooling Design Supply Air Temperature Input Method
  14,                                     !- Zone Cooling Design Supply Air Temperature {C}
  11.11,                                  !- Zone Cooling Design Supply Air Temperature Difference {deltaC}
  SupplyAirTemperature,                   !- Zone Heating Design Supply Air Temperature Input Method
  40,                                     !- Zone Heating Design Supply Air Temperature {C}
  11.11,                                  !- Zone Heating Design Supply Air Temperature Difference {deltaC}
  0.0085,                                 !- Zone Cooling Design Supply Air Humidity Ratio {kg-H2O/kg-air}
  0.008,                                  !- Zone Heating Design Supply Air Humidity Ratio {kg-H2O/kg-air}
  ,                                       !- Zone Heating Sizing Factor
  ,                                       !- Zone Cooling Sizing Factor
  DesignDay,                              !- Cooling Design Air Flow Method
  ,                                       !- Cooling Design Air Flow Rate {m3/s}
  ,                                       !- Cooling Minimum Air Flow per Zone Floor Area {m3/s-m2}
  ,                                       !- Cooling Minimum Air Flow {m3/s}
  ,                                       !- Cooling Minimum Air Flow Fraction
  DesignDay,                              !- Heating Design Air Flow Method
  ,                                       !- Heating Design Air Flow Rate {m3/s}
  ,                                       !- Heating Maximum Air Flow per Zone Floor Area {m3/s-m2}
  ,                                       !- Heating Maximum Air Flow {m3/s}
  ,                                       !- Heating Maximum Air Flow Fraction
  No,                                     !- Account for Dedicated Outdoor Air System
  NeutralSupplyAir,                       !- Dedicated Outdoor Air System Control Strategy
  autosize,                               !- Dedicated Outdoor Air Low Setpoint Temperature for Design {C}
  autosize,                               !- Dedicated Outdoor Air High Setpoint Temperature for Design {C}
  Sensible Load Only No Latent Load,      !- Zone Load Sizing Method
  HumidityRatioDifference,                !- Zone Latent Cooling Design Supply Air Humidity Ratio Input Method
  ,                                       !- Zone Dehumidification Design Supply Air Humidity Ratio {kgWater/kgDryAir}
  0.005,                                  !- Zone Cooling Design Supply Air Humidity Ratio Difference {kgWater/kgDryAir}
  HumidityRatioDifference,                !- Zone Latent Heating Design Supply Air Humidity Ratio Input Method
  ,                                       !- Zone Humidification Design Supply Air Humidity Ratio {kgWater/kgDryAir}
  0.005,                                  !- Zone Humidification Design Supply Air Humidity Ratio Difference {kgWater/kgDryAir}
  ,                                       !- Zone Humidistat Dehumidification Set Point Schedule Name
  ,                                       !- Zone Humidistat Humidification Set Point Schedule Name
  ,                                       !- Design Zone Air Distribution Effectiveness in Cooling Mode
  ,                                       !- Design Zone Air Distribution Effectiveness in Heating Mode
  ,                                       !- Design Zone Secondary Recirculation Fraction {dimensionless}
  ,                                       !- Design Minimum Zone Ventilation Efficiency {dimensionless}
  Coincident;                             !- Sizing Option

OS:ZoneHVAC:EquipmentList,
  {8237a2fb-c9d8-4d8f-aa99-9b957a3e0ff2}, !- Handle
  Zone HVAC Equipment List 1,             !- Name
  {21029425-4d23-411f-8ff1-43d850736403}, !- Thermal Zone
  ,                                       !- Load Distribution Scheme
  {a3a8f4bf-9dd5-41d5-bbfa-ce4a3eff8e5c}, !- Zone Equipment 1
  1,                                      !- Zone Equipment Cooling Sequence 1
  1,                                      !- Zone Equipment Heating or No-Load Sequence 1
  {126ce661-b8fc-4c9f-8eb2-649e41fdeb48}, !- Zone Equipment Sequential Cooling Fraction Schedule Name 1
  {fecf519a-247a-42f9-a7d4-aa32eeba682e}; !- Zone Equipment Sequential Heating Fraction Schedule Name 1

OS:AdditionalProperties,
  {c4b3027a-abe7-4639-a2b4-ee70348a3209}, !- Handle
  {21029425-4d23-411f-8ff1-43d850736403}, !- Object Name
  ObjectType,                             !- Feature Name 1
  String,                                 !- Feature Data Type 1
  conditioned space;                      !- Feature Value 1

OS:Space,
  {be1692a3-05d6-443d-a443-4ff86f17c7ba}, !- Handle
  conditioned space 1,                    !- Name
  ,                                       !- Space Type Name
  ,                                       !- Default Construction Set Name
  ,                                       !- Default Schedule Set Name
  ,                                       !- Direction of Relative North {deg}
  ,                                       !- X Origin {m}
  ,                                       !- Y Origin {m}
  ,                                       !- Z Origin {m}
  ,                                       !- Building Story Name
  {21029425-4d23-411f-8ff1-43d850736403}, !- Thermal Zone Name
  ,                                       !- Part of Total Floor Area
  ,                                       !- Design Specification Outdoor Air Object Name
  ,                                       !- Building Unit Name
  475.79381486208;                        !- Volume {m3}

OS:Schedule:Ruleset,
  {a9ce2068-a04f-4716-831d-f60c40b5789f}, !- Handle
  heating setpoint,                       !- Name
  {60b45eb6-eb29-4893-ab96-df6a0b82bb3c}, !- Schedule Type Limits Name
  {9b4abb44-9bd3-4768-9e25-5155e375c62d}; !- Default Day Schedule Name

OS:Schedule:Day,
  {9b4abb44-9bd3-4768-9e25-5155e375c62d}, !- Handle
  heating setpoint default day,           !- Name
  {60b45eb6-eb29-4893-ab96-df6a0b82bb3c}, !- Schedule Type Limits Name
  ,                                       !- Interpolate to Timestep
  24,                                     !- Hour 1
  0,                                      !- Minute 1
  0;                                      !- Value Until Time 1

OS:Schedule:Rule,
  {1c371cdf-a357-424e-8d02-3c60d5652d43}, !- Handle
  heating setpoint allday rule,           !- Name
  {a9ce2068-a04f-4716-831d-f60c40b5789f}, !- Schedule Ruleset Name
  0,                                      !- Rule Order
  {a351f415-dabf-4775-b201-e1377129ddeb}, !- Day Schedule Name
  Yes,                                    !- Apply Sunday
  Yes,                                    !- Apply Monday
  Yes,                                    !- Apply Tuesday
  Yes,                                    !- Apply Wednesday
  Yes,                                    !- Apply Thursday
  Yes,                                    !- Apply Friday
  Yes,                                    !- Apply Saturday
  DateRange,                              !- Date Specification Type
  1,                                      !- Start Month
  1,                                      !- Start Day
  12,                                     !- End Month
  31;                                     !- End Day

OS:Schedule:Day,
  {a351f415-dabf-4775-b201-e1377129ddeb}, !- Handle
  heating setpoint day,                   !- Name
  {60b45eb6-eb29-4893-ab96-df6a0b82bb3c}, !- Schedule Type Limits Name
  ,                                       !- Interpolate to Timestep
  24,                                     !- Hour 1
  0,                                      !- Minute 1
  20;                                     !- Value Until Time 1

OS:Schedule:Ruleset,
  {90555202-f95f-4f1d-abe3-9a9971391701}, !- Handle
  cooling setpoint,                       !- Name
  {60b45eb6-eb29-4893-ab96-df6a0b82bb3c}, !- Schedule Type Limits Name
  {c495cf99-eeeb-4efe-a71f-c13a8031f471}; !- Default Day Schedule Name

OS:Schedule:Day,
  {c495cf99-eeeb-4efe-a71f-c13a8031f471}, !- Handle
  cooling setpoint default day,           !- Name
  {60b45eb6-eb29-4893-ab96-df6a0b82bb3c}, !- Schedule Type Limits Name
  ,                                       !- Interpolate to Timestep
  24,                                     !- Hour 1
  0,                                      !- Minute 1
  0;                                      !- Value Until Time 1

OS:Schedule:Rule,
  {6ad0908d-a55b-4e06-b558-c6b14836211f}, !- Handle
  cooling setpoint allday rule,           !- Name
  {90555202-f95f-4f1d-abe3-9a9971391701}, !- Schedule Ruleset Name
  0,                                      !- Rule Order
  {acc8fe11-9cb1-4c5e-91c9-aefc976b7506}, !- Day Schedule Name
  Yes,                                    !- Apply Sunday
  Yes,                                    !- Apply Monday
  Yes,                                    !- Apply Tuesday
  Yes,                                    !- Apply Wednesday
  Yes,                                    !- Apply Thursday
  Yes,                                    !- Apply Friday
  Yes,                                    !- Apply Saturday
  DateRange,                              !- Date Specification Type
  1,                                      !- Start Month
  1,                                      !- Start Day
  12,                                     !- End Month
  31;                                     !- End Day

OS:Schedule:Day,
  {acc8fe11-9cb1-4c5e-91c9-aefc976b7506}, !- Handle
  cooling setpoint day,                   !- Name
  {60b45eb6-eb29-4893-ab96-df6a0b82bb3c}, !- Schedule Type Limits Name
  ,                                       !- Interpolate to Timestep
  24,                                     !- Hour 1
  0,                                      !- Minute 1
  25.5555555555556;                       !- Value Until Time 1

OS:ThermostatSetpoint:DualSetpoint,
  {2bcd6191-4702-4abc-b932-3e64ecf04878}, !- Handle
  conditioned space temperature setpoint, !- Name
  {a9ce2068-a04f-4716-831d-f60c40b5789f}, !- Heating Setpoint Temperature Schedule Name
  {90555202-f95f-4f1d-abe3-9a9971391701}, !- Cooling Setpoint Temperature Schedule Name
  0;                                      !- Temperature Difference Between Cutout And Setpoint {deltaC}

OS:ScheduleTypeLimits,
  {60b45eb6-eb29-4893-ab96-df6a0b82bb3c}, !- Handle
  Temperature,                            !- Name
  ,                                       !- Lower Limit Value
  ,                                       !- Upper Limit Value
  Continuous,                             !- Numeric Type
  Temperature;                            !- Unit Type

OS:Surface,
  {1024f657-bf4c-481f-8cda-7fb7a626068b}, !- Handle
  Roof1,                                  !- Name
  RoofCeiling,                            !- Surface Type
  {017bd076-5806-4b9c-a94e-ada35ad32ce1}, !- Construction Name
  {be1692a3-05d6-443d-a443-4ff86f17c7ba}, !- Space Name
  Outdoors,                               !- Outside Boundary Condition
  ,                                       !- Outside Boundary Condition Object
  SunExposed,                             !- Sun Exposure
  WindExposed,                            !- Wind Exposure
  ,                                       !- View Factor to Ground
  ,                                       !- Number of Vertices
  -5.95628646053898, 5.95628646053898, 2.4384, !- X,Y,Z Vertex 1 {m}
  -5.95628646053898, -5.95628646053898, 2.4384, !- X,Y,Z Vertex 2 {m}
  5.95628646053898, -5.95628646053898, 2.4384, !- X,Y,Z Vertex 3 {m}
  5.95628646053898, 5.95628646053898, 2.4384; !- X,Y,Z Vertex 4 {m}

OS:AdditionalProperties,
  {ea859161-2184-421a-ab6a-d63ea9c162f4}, !- Handle
  {1024f657-bf4c-481f-8cda-7fb7a626068b}, !- Object Name
  Length,                                 !- Feature Name 1
  Double,                                 !- Feature Data Type 1
  39.083244491725608,                     !- Feature Value 1
  Width,                                  !- Feature Name 2
  Double,                                 !- Feature Data Type 2
  39.083244491725608,                     !- Feature Value 2
  Azimuth,                                !- Feature Name 3
  Integer,                                !- Feature Data Type 3
  0,                                      !- Feature Value 3
  Tilt,                                   !- Feature Name 4
  Double,                                 !- Feature Data Type 4
  0,                                      !- Feature Value 4
  SurfaceType,                            !- Feature Name 5
  String,                                 !- Feature Data Type 5
  Roof;                                   !- Feature Value 5

OS:Material,
  {1373f610-e103-4270-9c21-1e90fb083396}, !- Handle
  asphalt or fiberglass shingles,         !- Name
  Rough,                                  !- Roughness
  0.00635,                                !- Thickness {m}
  0.162714,                               !- Conductivity {W/m-K}
  1121.4,                                 !- Density {kg/m3}
  1465.45,                                !- Specific Heat {J/kg-K}
  0.9,                                    !- Thermal Absorptance
  0.85,                                   !- Solar Absorptance
  0.85;                                   !- Visible Absorptance

OS:Material,
  {a68501e3-b09b-4cf7-af43-2200cbfde671}, !- Handle
  roof stud and cavity,                   !- Name
  Rough,                                  !- Roughness
  0.0889,                                 !- Thickness {m}
  0.491900632004487,                      !- Conductivity {W/m-K}
  50.32683,                               !- Density {kg/m3}
  1063.80987585548,                       !- Specific Heat {J/kg-K}
  0.9,                                    !- Thermal Absorptance
  0.7,                                    !- Solar Absorptance
  0.7;                                    !- Visible Absorptance

OS:Material,
  {e9a8d88a-6b88-4659-a596-e5f151bb4fa0}, !- Handle
  gypsum board,                           !- Name
  Rough,                                  !- Roughness
  0.00254,                                !- Thickness {m}
  0.1602906,                              !- Conductivity {W/m-K}
  801,                                    !- Density {kg/m3}
  837.4,                                  !- Specific Heat {J/kg-K}
  0.9,                                    !- Thermal Absorptance
  0.6,                                    !- Solar Absorptance
  0.6;                                    !- Visible Absorptance

OS:Construction,
  {017bd076-5806-4b9c-a94e-ada35ad32ce1}, !- Handle
  Roof1 construction,                     !- Name
  ,                                       !- Surface Rendering Name
  {1373f610-e103-4270-9c21-1e90fb083396}, !- Layer 1
  {a68501e3-b09b-4cf7-af43-2200cbfde671}, !- Layer 2
  {e9a8d88a-6b88-4659-a596-e5f151bb4fa0}; !- Layer 3

OS:Surface,
  {f03d048c-524d-4f62-82f1-0833418e2911}, !- Handle
  Wall1,                                  !- Name
  Wall,                                   !- Surface Type
  {04eacb4a-d8cb-4d55-9f6d-e73c830e261b}, !- Construction Name
  {be1692a3-05d6-443d-a443-4ff86f17c7ba}, !- Space Name
  Outdoors,                               !- Outside Boundary Condition
  ,                                       !- Outside Boundary Condition Object
  SunExposed,                             !- Sun Exposure
  WindExposed,                            !- Wind Exposure
  ,                                       !- View Factor to Ground
  ,                                       !- Number of Vertices
  -29.479875, 30.4089054, 0,              !- X,Y,Z Vertex 1 {m}
  -29.479875, 30.4089054, 4.8768,         !- X,Y,Z Vertex 2 {m}
  -21.055965, 30.4089054, 4.8768,         !- X,Y,Z Vertex 3 {m}
  -21.055965, 30.4089054, 0;              !- X,Y,Z Vertex 4 {m}

OS:AdditionalProperties,
  {347b5dd9-f445-4675-9e6d-54383ec58387}, !- Handle
  {f03d048c-524d-4f62-82f1-0833418e2911}, !- Object Name
  Length,                                 !- Feature Name 1
  Double,                                 !- Feature Data Type 1
  27.637499999999999,                     !- Feature Value 1
  Azimuth,                                !- Feature Name 2
  Integer,                                !- Feature Data Type 2
  0,                                      !- Feature Value 2
  Tilt,                                   !- Feature Name 3
  Double,                                 !- Feature Data Type 3
  90,                                     !- Feature Value 3
  SurfaceType,                            !- Feature Name 4
  String,                                 !- Feature Data Type 4
  Wall;                                   !- Feature Value 4

OS:Material,
  {3a96c4b3-4009-4f60-9cad-011264d5f4c4}, !- Handle
  wood siding,                            !- Name
  Rough,                                  !- Roughness
  0.0254,                                 !- Thickness {m}
  0.1024175,                              !- Conductivity {W/m-K}
  544.68,                                 !- Density {kg/m3}
  1172.36,                                !- Specific Heat {J/kg-K}
  0.9,                                    !- Thermal Absorptance
  0.7,                                    !- Solar Absorptance
  0.7;                                    !- Visible Absorptance

OS:Material,
  {9c433555-5297-4b00-9c55-d95dbfa83c47}, !- Handle
  osb sheathing 0.5 in.,                  !- Name
  Rough,                                  !- Roughness
  0.0127,                                 !- Thickness {m}
  0.1154577,                              !- Conductivity {W/m-K}
  512.64,                                 !- Density {kg/m3}
  1214.23,                                !- Specific Heat {J/kg-K}
  0.9,                                    !- Thermal Absorptance
  0.7,                                    !- Solar Absorptance
  0.7;                                    !- Visible Absorptance

OS:Material,
  {9d2d66e5-430d-4b9e-b661-bf41430eff65}, !- Handle
  wall stud and cavity,                   !- Name
  Rough,                                  !- Roughness
  0.1397,                                 !- Thickness {m}
  0.0929021674204099,                     !- Conductivity {W/m-K}
  139.0536,                               !- Density {kg/m3}
  1170.23755760369,                       !- Specific Heat {J/kg-K}
  0.9,                                    !- Thermal Absorptance
  0.7,                                    !- Solar Absorptance
  0.7;                                    !- Visible Absorptance

OS:Material,
  {14342773-75c3-4e41-9c28-8e0419490b9f}, !- Handle
  gypsum board 1,                         !- Name
  Rough,                                  !- Roughness
  0.0127,                                 !- Thickness {m}
  0.1602906,                              !- Conductivity {W/m-K}
  801,                                    !- Density {kg/m3}
  837.4,                                  !- Specific Heat {J/kg-K}
  0.9,                                    !- Thermal Absorptance
  0.6,                                    !- Solar Absorptance
  0.6;                                    !- Visible Absorptance

OS:Construction,
  {04eacb4a-d8cb-4d55-9f6d-e73c830e261b}, !- Handle
  Wall1 construction,                     !- Name
  ,                                       !- Surface Rendering Name
  {3a96c4b3-4009-4f60-9cad-011264d5f4c4}, !- Layer 1
  {9c433555-5297-4b00-9c55-d95dbfa83c47}, !- Layer 2
  {9d2d66e5-430d-4b9e-b661-bf41430eff65}, !- Layer 3
  {14342773-75c3-4e41-9c28-8e0419490b9f}; !- Layer 4

OS:Surface,
  {0cf65f9e-4dbd-40e0-8ee7-e2fb5c6c9ff9}, !- Handle
  Wall2,                                  !- Name
  Wall,                                   !- Surface Type
  {5f56405a-493a-45b0-a09f-6171934443fb}, !- Construction Name
  {be1692a3-05d6-443d-a443-4ff86f17c7ba}, !- Space Name
  Outdoors,                               !- Outside Boundary Condition
  ,                                       !- Outside Boundary Condition Object
  SunExposed,                             !- Sun Exposure
  WindExposed,                            !- Wind Exposure
  ,                                       !- View Factor to Ground
  ,                                       !- Number of Vertices
  30.4089054, -26.1969504, 0,             !- X,Y,Z Vertex 1 {m}
  30.4089054, -26.1969504, 4.8768,        !- X,Y,Z Vertex 2 {m}
  30.4089054, -30.4089054, 4.8768,        !- X,Y,Z Vertex 3 {m}
  30.4089054, -30.4089054, 0;             !- X,Y,Z Vertex 4 {m}

OS:AdditionalProperties,
  {ee798683-51bd-4c60-8606-aa1b84d19140}, !- Handle
  {0cf65f9e-4dbd-40e0-8ee7-e2fb5c6c9ff9}, !- Object Name
  Length,                                 !- Feature Name 1
  Double,                                 !- Feature Data Type 1
  13.81875,                               !- Feature Value 1
  Azimuth,                                !- Feature Name 2