
OS:Version,
  {2af647cc-72ab-4e1d-a35b-a96568aff225}, !- Handle
  3.9.0;                                  !- Version Identifier

OS:SimulationControl,
  {da28565b-f987-4591-a544-3d557e5c5b55}, !- Handle
  ,                                       !- Do Zone Sizing Calculation
  ,                                       !- Do System Sizing Calculation
  ,                                       !- Do Plant Sizing Calculation
  No;                                     !- Run Simulation for Sizing Periods

OS:Timestep,
  {ae73e3b8-8a06-4866-a651-623869f32c00}, !- Handle
  1;                                      !- Number of Timesteps per Hour

OS:ShadowCalculation,
  {89dfe36b-854d-40f4-9e1f-0eceb20b4331}, !- Handle
  PolygonClipping,                        !- Shading Calculation Method
  ,                                       !- Shading Calculation Update Frequency Method
  20,                                     !- Shading Calculation Update Frequency
  200,                                    !- Maximum Figures in Shadow Overlap Calculations
  ,                                       !- Polygon Clipping Algorithm
  512,                                    !- Pixel Counting Resolution
  ,                                       !- Sky Diffuse Modeling Algorithm
  No,                                     !- Output External Shading Calculation Results
  No,                                     !- Disable Self-Shading Within Shading Zone Groups
  No;                                     !- Disable Self-Shading From Shading Zone Groups to Other Zones

OS:SurfaceConvectionAlgorithm:Outside,
  {2eb3db91-d5e3-44d8-8842-30c9edd110f1}, !- Handle
  DOE-2;                                  !- Algorithm

OS:SurfaceConvectionAlgorithm:Inside,
  {f33c1db9-5e71-43bc-a0da-4b379b8e004c}, !- Handle
  TARP;                                   !- Algorithm

OS:ZoneCapacitanceMultiplier:ResearchSpecial,
  {c7c09828-9a5b-4699-ba59-2fc655935d54}, !- Handle
  7,                                      !- Temperature Capacity Multiplier
  15,                                     !- Humidity Capacity Multiplier
  ;                                       !- Carbon Dioxide Capacity Multiplier

OS:ConvergenceLimits,
  {551d83cf-a19d-4ce4-87f8-d21eca749eea}, !- Handle
  0;                                      !- Minimum System Timestep {minutes}

OS:RunPeriod,
  {dc2ad771-5cc6-4c34-875f-a8a90604243a}, !- Handle
  Run Period 1,                           !- Name
  1,                                      !- Begin Month
  1,                                      !- Begin Day of Month
  12,                                     !- End Month
  31,                                     !- End Day of Month
  ,                                       !- Use Weather File Holidays and Special Days
  ,                                       !- Use Weather File Daylight Saving Period
  ,                                       !- Apply Weekend Holiday Rule
  ,                                       !- Use Weather File Rain Indicators
  ,                                       !- Use Weather File Snow Indicators
  ;                                       !- Number of Times Runperiod to be Repeated

OS:PerformancePrecisionTradeoffs,
  {490956d0-0fc8-450c-91b1-5a85d764f6b9}, !- Handle
  ,                                       !- Use Coil Direct Solutions
  CarrollMRT;                             !- Zone Radiant Exchange Algorithm

OS:WeatherFile,
  {6abc3d36-a58d-4704-adf4-7a5cfff3ef9b}, !- Handle
  Buffalo Niagara Intl Ap,                !- City
  NY,                                     !- State Province Region
  USA,                                    !- Country
  TMY3,                                   !- Data Source
  725280,                                 !- WMO Number
  42.93,                                  !- Latitude {deg}
  -78.73,                                 !- Longitude {deg}
  -5,                                     !- Time Zone {hr}
  215,                                    !- Elevation {m}
  /Users/nmoore/github/urbanopt-example-geojson-project/example_project/weather/USA_NY_Buffalo-Greater.Buffalo.Intl.AP.725280_TMY3.epw, !- Url
  6B50E0FF,                               !- Checksum
  ,                                       !- Start Date Actual Year
  Sunday;                                 !- Start Day of Week

OS:YearDescription,
  {1db19e2f-eb98-4585-85fc-ea21c7b58839}, !- Handle
  2007,                                   !- Calendar Year
  ,                                       !- Day of Week for Start Day
  ;                                       !- Is Leap Year

OS:Site,
  {927c69cb-b499-4495-9144-172f9a4008c3}, !- Handle
  Buffalo Niagara Intl Ap_NY,             !- Name
  42.93,                                  !- Latitude {deg}
  -78.73,                                 !- Longitude {deg}
  -5,                                     !- Time Zone {hr}
  215,                                    !- Elevation {m}
  Suburbs,                                !- Terrain
  Yes;                                    !- Keep Site Location Information

OS:RunPeriodControl:DaylightSavingTime,
  {f856a2ec-01d1-4583-ad5c-82a91319d409}, !- Handle
  Mar 12,                                 !- Start Date
  Nov 5;                                  !- End Date

OS:Site:GroundTemperature:Shallow,
  {d77c7c22-e213-44c1-a136-7687ad99fa52}, !- Handle
  4.30207395723828,                       !- January Surface Ground Temperature {C}
  2.29327249652502,                       !- February Surface Ground Temperature {C}
  2.13240047156047,                       !- March Surface Ground Temperature {C}
  3.08567940719286,                       !- April Surface Ground Temperature {C}
  6.91256312497526,                       !- May Surface Ground Temperature {C}
  10.7216195949507,                       !- June Surface Ground Temperature {C}
  14.0238679822574,                       !- July Surface Ground Temperature {C}
  16.1157611184724,                       !- August Surface Ground Temperature {C}
  16.2934789303462,                       !- September Surface Ground Temperature {C}
  14.5920754632847,                       !- October Surface Ground Temperature {C}
  11.374036348653,                        !- November Surface Ground Temperature {C}
  7.68182621661674;                       !- December Surface Ground Temperature {C}

OS:ThermalZone,
  {a0ddb8e8-efb5-4047-9fde-73732bda1449}, !- Handle
  conditioned space,                      !- Name
  1,                                      !- Multiplier
  ,                                       !- Ceiling Height {m}
  475.79381486208,                        !- Volume {m3}
  ,                                       !- Floor Area {m2}
  ,                                       !- Zone Inside Convection Algorithm
  ,                                       !- Zone Outside Convection Algorithm
  ,                                       !- Zone Conditioning Equipment List Name
  {616b38c4-e614-4975-bc9b-38adc0584be1}, !- Zone Air Inlet Port List
  {067182da-4ec5-47b3-bbec-0fb8cf1909d9}, !- Zone Air Exhaust Port List
  {b230272b-f1a0-4919-9ece-9586724b1250}, !- Zone Air Node Name
  {5fe46c34-a4fa-40ff-a47e-1bb6742ac89a}, !- Zone Return Air Port List
  ,                                       !- Primary Daylighting Control Name
  ,                                       !- Fraction of Zone Controlled by Primary Daylighting Control
  ,                                       !- Secondary Daylighting Control Name
  ,                                       !- Fraction of Zone Controlled by Secondary Daylighting Control
  ,                                       !- Illuminance Map Name
  ,                                       !- Group Rendering Name
  {31752470-bdf9-4153-9863-c69365c44a12}, !- Thermostat Name
  No;                                     !- Use Ideal Air Loads

OS:Node,
  {c1b3e3e3-9257-478e-ba8f-a6e5eceffef0}, !- Handle
  Node 1,                                 !- Name
  {b230272b-f1a0-4919-9ece-9586724b1250}, !- Inlet Port
  ;                                       !- Outlet Port

OS:Connection,
  {b230272b-f1a0-4919-9ece-9586724b1250}, !- Handle
  {a0ddb8e8-efb5-4047-9fde-73732bda1449}, !- Source Object
  11,                                     !- Outlet Port
  {c1b3e3e3-9257-478e-ba8f-a6e5eceffef0}, !- Target Object
  2;                                      !- Inlet Port

OS:PortList,
  {616b38c4-e614-4975-bc9b-38adc0584be1}, !- Handle
  {a0ddb8e8-efb5-4047-9fde-73732bda1449}, !- HVAC Component
  {e3ef7137-71a0-49b3-96d0-5069abc3500a}; !- Port 1

OS:PortList,
  {067182da-4ec5-47b3-bbec-0fb8cf1909d9}, !- Handle
  {a0ddb8e8-efb5-4047-9fde-73732bda1449}; !- HVAC Component

OS:PortList,
  {5fe46c34-a4fa-40ff-a47e-1bb6742ac89a}, !- Handle
  {a0ddb8e8-efb5-4047-9fde-73732bda1449}, !- HVAC Component
  {e9fd95d4-2f53-4875-a27c-33bf71261843}; !- Port 1

OS:Sizing:Zone,
  {34f23e91-b383-4c58-9830-629be479bdca}, !- Handle
  {a0ddb8e8-efb5-4047-9fde-73732bda1449}, !- Zone or ZoneList Name
  SupplyAirTemperature,                   !- Zone Cooling Design Supply Air Temperature Input Method
  14,                                     !- Zone Cooling Design Supply Air Temperature {C}
  11.11,                                  !- Zone Cooling Design Supply Air Temperature Difference {deltaC}
  SupplyAirTemperature,                   !- Zone Heating Design Supply Air Temperature Input Method
  40,                                     !- Zone Heating Design Supply Air Temperature {C}
  11.11,                                  !- Zone Heating Design Supply Air Temperature Difference {deltaC}
  0.0085,                                 !- Zone Cooling Design Supply Air Humidity Ratio {kg-H2O/kg-air}
  0.008,                                  !- Zone Heating Design Supply Air Humidity Ratio {kg-H2O/kg-air}
  ,                                       !- Zone Heating Sizing Factor
  ,                                       !- Zone Cooling Sizing Factor
  DesignDay,                              !- Cooling Design Air Flow Method
  ,                                       !- Cooling Design Air Flow Rate {m3/s}
  ,                                       !- Cooling Minimum Air Flow per Zone Floor Area {m3/s-m2}
  ,                                       !- Cooling Minimum Air Flow {m3/s}
  ,                                       !- Cooling Minimum Air Flow Fraction
  DesignDay,                              !- Heating Design Air Flow Method
  ,                                       !- Heating Design Air Flow Rate {m3/s}
  ,                                       !- Heating Maximum Air Flow per Zone Floor Area {m3/s-m2}
  ,                                       !- Heating Maximum Air Flow {m3/s}
  ,                                       !- Heating Maximum Air Flow Fraction
  No,                                     !- Account for Dedicated Outdoor Air System
  NeutralSupplyAir,                       !- Dedicated Outdoor Air System Control Strategy
  autosize,                               !- Dedicated Outdoor Air Low Setpoint Temperature for Design {C}
  autosize,                               !- Dedicated Outdoor Air High Setpoint Temperature for Design {C}
  Sensible Load Only No Latent Load,      !- Zone Load Sizing Method
  HumidityRatioDifference,                !- Zone Latent Cooling Design Supply Air Humidity Ratio Input Method
  ,                                       !- Zone Dehumidification Design Supply Air Humidity Ratio {kgWater/kgDryAir}
  0.005,                                  !- Zone Cooling Design Supply Air Humidity Ratio Difference {kgWater/kgDryAir}
  HumidityRatioDifference,                !- Zone Latent Heating Design Supply Air Humidity Ratio Input Method
  ,                                       !- Zone Humidification Design Supply Air Humidity Ratio {kgWater/kgDryAir}
  0.005,                                  !- Zone Humidification Design Supply Air Humidity Ratio Difference {kgWater/kgDryAir}
  ,                                       !- Zone Humidistat Dehumidification Set Point Schedule Name
  ,                                       !- Zone Humidistat Humidification Set Point Schedule Name
  ,                                       !- Design Zone Air Distribution Effectiveness in Cooling Mode
  ,                                       !- Design Zone Air Distribution Effectiveness in Heating Mode
  ,                                       !- Design Zone Secondary Recirculation Fraction {dimensionless}
  ,                                       !- Design Minimum Zone Ventilation Efficiency {dimensionless}
  Coincident;                             !- Sizing Option

OS:ZoneHVAC:EquipmentList,
  {2205ab4b-00d0-4a39-8e2a-36848b6a6f6b}, !- Handle
  Zone HVAC Equipment List 1,             !- Name
  {a0ddb8e8-efb5-4047-9fde-73732bda1449}, !- Thermal Zone
  ,                                       !- Load Distribution Scheme
  {3c179515-1bcc-457b-bd65-18d939205f3d}, !- Zone Equipment 1
  1,                                      !- Zone Equipment Cooling Sequence 1
  1,                                      !- Zone Equipment Heating or No-Load Sequence 1
  {1d002e90-585e-44a8-9214-8767f927bf37}, !- Zone Equipment Sequential Cooling Fraction Schedule Name 1
  {c23f18f5-db4b-4ff0-88a7-e4fd3cd448eb}; !- Zone Equipment Sequential Heating Fraction Schedule Name 1

OS:AdditionalProperties,
  {58a9adee-2415-419f-a5a3-bdb4d7ff8dbb}, !- Handle
  {a0ddb8e8-efb5-4047-9fde-73732bda1449}, !- Object Name
  ObjectType,                             !- Feature Name 1
  String,                                 !- Feature Data Type 1
  conditioned space;                      !- Feature Value 1

OS:Space,
  {679574f2-5a1e-4a4d-b885-5886b4ae5dc1}, !- Handle
  conditioned space 1,                    !- Name
  ,                                       !- Space Type Name
  ,                                       !- Default Construction Set Name
  ,                                       !- Default Schedule Set Name
  ,                                       !- Direction of Relative North {deg}
  ,                                       !- X Origin {m}
  ,                                       !- Y Origin {m}
  ,                                       !- Z Origin {m}
  ,                                       !- Building Story Name
  {a0ddb8e8-efb5-4047-9fde-73732bda1449}, !- Thermal Zone Name
  ,                                       !- Part of Total Floor Area
  ,                                       !- Design Specification Outdoor Air Object Name
  ,                                       !- Building Unit Name
  475.79381486208;                        !- Volume {m3}

OS:Schedule:Ruleset,
  {47431ff9-5b40-4078-ad6b-d0922e13aef6}, !- Handle
  heating setpoint,                       !- Name
  {47f9e8a0-f647-4d20-9680-2e8f81d1aa66}, !- Schedule Type Limits Name
  {acdb0490-cdf7-4992-a8e4-67f5b977d7cf}; !- Default Day Schedule Name

OS:Schedule:Day,
  {acdb0490-cdf7-4992-a8e4-67f5b977d7cf}, !- Handle
  heating setpoint default day,           !- Name
  {47f9e8a0-f647-4d20-9680-2e8f81d1aa66}, !- Schedule Type Limits Name
  ,                                       !- Interpolate to Timestep
  24,                                     !- Hour 1
  0,                                      !- Minute 1
  0;                                      !- Value Until Time 1

OS:Schedule:Rule,
  {948d9e67-8f07-48f4-845c-81004fd5f9a6}, !- Handle
  heating setpoint allday rule,           !- Name
  {47431ff9-5b40-4078-ad6b-d0922e13aef6}, !- Schedule Ruleset Name
  0,                                      !- Rule Order
  {6258bf2b-0ce0-4244-926e-da08aa9f2b57}, !- Day Schedule Name
  Yes,                                    !- Apply Sunday
  Yes,                                    !- Apply Monday
  Yes,                                    !- Apply Tuesday
  Yes,                                    !- Apply Wednesday
  Yes,                                    !- Apply Thursday
  Yes,                                    !- Apply Friday
  Yes,                                    !- Apply Saturday
  DateRange,                              !- Date Specification Type
  1,                                      !- Start Month
  1,                                      !- Start Day
  12,                                     !- End Month
  31;                                     !- End Day

OS:Schedule:Day,
  {6258bf2b-0ce0-4244-926e-da08aa9f2b57}, !- Handle
  heating setpoint day,                   !- Name
  {47f9e8a0-f647-4d20-9680-2e8f81d1aa66}, !- Schedule Type Limits Name
  ,                                       !- Interpolate to Timestep
  24,                                     !- Hour 1
  0,                                      !- Minute 1
  20;                                     !- Value Until Time 1

OS:Schedule:Ruleset,
  {82e68c93-67e5-4bf7-9e7b-c74d77dd563d}, !- Handle
  cooling setpoint,                       !- Name
  {47f9e8a0-f647-4d20-9680-2e8f81d1aa66}, !- Schedule Type Limits Name
  {4ca6616e-f2d2-4b6c-9b05-d771603cc38d}; !- Default Day Schedule Name

OS:Schedule:Day,
  {4ca6616e-f2d2-4b6c-9b05-d771603cc38d}, !- Handle
  cooling setpoint default day,           !- Name
  {47f9e8a0-f647-4d20-9680-2e8f81d1aa66}, !- Schedule Type Limits Name
  ,                                       !- Interpolate to Timestep
  24,                                     !- Hour 1
  0,                                      !- Minute 1
  0;                                      !- Value Until Time 1

OS:Schedule:Rule,
  {dfce1e08-6264-4ed2-9192-b5dd698c4ce3}, !- Handle
  cooling setpoint allday rule,           !- Name
  {82e68c93-67e5-4bf7-9e7b-c74d77dd563d}, !- Schedule Ruleset Name
  0,                                      !- Rule Order
  {25d3686c-36b4-420a-8586-5aefcc911f05}, !- Day Schedule Name
  Yes,                                    !- Apply Sunday
  Yes,                                    !- Apply Monday
  Yes,                                    !- Apply Tuesday
  Yes,                                    !- Apply Wednesday
  Yes,                                    !- Apply Thursday
  Yes,                                    !- Apply Friday
  Yes,                                    !- Apply Saturday
  DateRange,                              !- Date Specification Type
  1,                                      !- Start Month
  1,                                      !- Start Day
  12,                                     !- End Month
  31;                                     !- End Day

OS:Schedule:Day,
  {25d3686c-36b4-420a-8586-5aefcc911f05}, !- Handle
  cooling setpoint day,                   !- Name
  {47f9e8a0-f647-4d20-9680-2e8f81d1aa66}, !- Schedule Type Limits Name
  ,                                       !- Interpolate to Timestep
  24,                                     !- Hour 1
  0,                                      !- Minute 1
  25.5555555555556;                       !- Value Until Time 1

OS:ThermostatSetpoint:DualSetpoint,
  {31752470-bdf9-4153-9863-c69365c44a12}, !- Handle
  conditioned space temperature setpoint, !- Name
  {47431ff9-5b40-4078-ad6b-d0922e13aef6}, !- Heating Setpoint Temperature Schedule Name
  {82e68c93-67e5-4bf7-9e7b-c74d77dd563d}, !- Cooling Setpoint Temperature Schedule Name
  0;                                      !- Temperature Difference Between Cutout And Setpoint {deltaC}

OS:ScheduleTypeLimits,
  {47f9e8a0-f647-4d20-9680-2e8f81d1aa66}, !- Handle
  Temperature,                            !- Name
  ,                                       !- Lower Limit Value
  ,                                       !- Upper Limit Value
  Continuous,                             !- Numeric Type
  Temperature;                            !- Unit Type

OS:Surface,
  {04254ff2-6eca-4178-b23e-a51cb183ae35}, !- Handle
  Roof1,                                  !- Name
  RoofCeiling,                            !- Surface Type
  {727a3d20-0ecf-4220-a305-14b593d7caa8}, !- Construction Name
  {679574f2-5a1e-4a4d-b885-5886b4ae5dc1}, !- Space Name
  Outdoors,                               !- Outside Boundary Condition
  ,                                       !- Outside Boundary Condition Object
  SunExposed,                             !- Sun Exposure
  WindExposed,                            !- Wind Exposure
  ,                                       !- View Factor to Ground
  ,                                       !- Number of Vertices
  -5.95628646053898, 5.95628646053898, 2.4384, !- X,Y,Z Vertex 1 {m}
  -5.95628646053898, -5.95628646053898, 2.4384, !- X,Y,Z Vertex 2 {m}
  5.95628646053898, -5.95628646053898, 2.4384, !- X,Y,Z Vertex 3 {m}
  5.95628646053898, 5.95628646053898, 2.4384; !- X,Y,Z Vertex 4 {m}

OS:AdditionalProperties,
  {bf78a097-6e84-4d55-aa71-8a448bdaace2}, !- Handle
  {04254ff2-6eca-4178-b23e-a51cb183ae35}, !- Object Name
  Length,                                 !- Feature Name 1
  Double,                                 !- Feature Data Type 1
  39.083244491725608,                     !- Feature Value 1
  Width,                                  !- Feature Name 2
  Double,                                 !- Feature Data Type 2
  39.083244491725608,                     !- Feature Value 2
  Azimuth,                                !- Feature Name 3
  Integer,                                !- Feature Data Type 3
  0,                                      !- Feature Value 3
  Tilt,                                   !- Feature Name 4
  Double,                                 !- Feature Data Type 4
  0,                                      !- Feature Value 4
  SurfaceType,                            !- Feature Name 5
  String,                                 !- Feature Data Type 5
  Roof;                                   !- Feature Value 5

OS:Material,
  {35a20852-cbc8-43f6-81d4-c66d87806a03}, !- Handle
  asphalt or fiberglass shingles,         !- Name
  Rough,                                  !- Roughness
  0.00635,                                !- Thickness {m}
  0.162714,                               !- Conductivity {W/m-K}
  1121.4,                                 !- Density {kg/m3}
  1465.45,                                !- Specific Heat {J/kg-K}
  0.9,                                    !- Thermal Absorptance
  0.85,                                   !- Solar Absorptance
  0.85;                                   !- Visible Absorptance

OS:Material,
  {12939427-eb20-4a3b-a1f5-ed232c2ca351}, !- Handle
  roof stud and cavity,                   !- Name
  Rough,                                  !- Roughness
  0.0889,                                 !- Thickness {m}
  0.491900632004487,                      !- Conductivity {W/m-K}
  50.32683,                               !- Density {kg/m3}
  1063.80987585548,                       !- Specific Heat {J/kg-K}
  0.9,                                    !- Thermal Absorptance
  0.7,                                    !- Solar Absorptance
  0.7;                                    !- Visible Absorptance

OS:Material,
  {d51a4687-a93e-434a-b114-5aee25cfe373}, !- Handle
  gypsum board,                           !- Name
  Rough,                                  !- Roughness
  0.00254,                                !- Thickness {m}
  0.1602906,                              !- Conductivity {W/m-K}
  801,                                    !- Density {kg/m3}
  837.4,                                  !- Specific Heat {J/kg-K}
  0.9,                                    !- Thermal Absorptance
  0.6,                                    !- Solar Absorptance
  0.6;                                    !- Visible Absorptance

OS:Construction,
  {727a3d20-0ecf-4220-a305-14b593d7caa8}, !- Handle
  Roof1 construction,                     !- Name
  ,                                       !- Surface Rendering Name
  {35a20852-cbc8-43f6-81d4-c66d87806a03}, !- Layer 1
  {12939427-eb20-4a3b-a1f5-ed232c2ca351}, !- Layer 2
  {d51a4687-a93e-434a-b114-5aee25cfe373}; !- Layer 3

OS:Surface,
  {fb186967-d2c4-4b29-9060-57e3886ff0a4}, !- Handle
  Wall1,                                  !- Name
  Wall,                                   !- Surface Type
  {59761900-b765-4fdb-93bd-93111766988e}, !- Construction Name
  {679574f2-5a1e-4a4d-b885-5886b4ae5dc1}, !- Space Name
  Outdoors,                               !- Outside Boundary Condition
  ,                                       !- Outside Boundary Condition Object
  SunExposed,                             !- Sun Exposure
  WindExposed,                            !- Wind Exposure
  ,                                       !- View Factor to Ground
  ,                                       !- Number of Vertices
  -29.479875, 30.4089054, 0,              !- X,Y,Z Vertex 1 {m}
  -29.479875, 30.4089054, 4.8768,         !- X,Y,Z Vertex 2 {m}
  -21.055965, 30.4089054, 4.8768,         !- X,Y,Z Vertex 3 {m}
  -21.055965, 30.4089054, 0;              !- X,Y,Z Vertex 4 {m}

OS:AdditionalProperties,
  {a6b2d525-ed04-463a-a303-680403071052}, !- Handle
  {fb186967-d2c4-4b29-9060-57e3886ff0a4}, !- Object Name
  Length,                                 !- Feature Name 1
  Double,                                 !- Feature Data Type 1
  27.637499999999999,                     !- Feature Value 1
  Azimuth,                                !- Feature Name 2
  Integer,                                !- Feature Data Type 2
  0,                                      !- Feature Value 2
  Tilt,                                   !- Feature Name 3
  Double,                                 !- Feature Data Type 3
  90,                                     !- Feature Value 3
  SurfaceType,                            !- Feature Name 4
  String,                                 !- Feature Data Type 4
  Wall;                                   !- Feature Value 4

OS:Material,
  {50187e1d-367f-4477-8fdf-40c7ca8b9c24}, !- Handle
  wood siding,                            !- Name
  Rough,                                  !- Roughness
  0.0254,                                 !- Thickness {m}
  0.1024175,                              !- Conductivity {W/m-K}
  544.68,                                 !- Density {kg/m3}
  1172.36,                                !- Specific Heat {J/kg-K}
  0.9,                                    !- Thermal Absorptance
  0.7,                                    !- Solar Absorptance
  0.7;                                    !- Visible Absorptance

OS:Material,
  {2f785ea2-d174-4da7-8d5f-2619bc3f969c}, !- Handle
  osb sheathing 0.5 in.,                  !- Name
  Rough,                                  !- Roughness
  0.0127,                                 !- Thickness {m}
  0.1154577,                              !- Conductivity {W/m-K}
  512.64,                                 !- Density {kg/m3}
  1214.23,                                !- Specific Heat {J/kg-K}
  0.9,                                    !- Thermal Absorptance
  0.7,                                    !- Solar Absorptance
  0.7;                                    !- Visible Absorptance

OS:Material,
  {4d0ca7ce-bcd6-46dd-8f49-5a2d672e5c2e}, !- Handle
  wall stud and cavity,                   !- Name
  Rough,                                  !- Roughness
  0.1397,                                 !- Thickness {m}
  0.0929021674204099,                     !- Conductivity {W/m-K}
  139.0536,                               !- Density {kg/m3}
  1170.23755760369,                       !- Specific Heat {J/kg-K}
  0.9,                                    !- Thermal Absorptance
  0.7,                                    !- Solar Absorptance
  0.7;                                    !- Visible Absorptance

OS:Material,
  {43171710-bbc9-447b-8f75-21ab800496cb}, !- Handle
  gypsum board 1,                         !- Name
  Rough,                                  !- Roughness
  0.0127,                                 !- Thickness {m}
  0.1602906,                              !- Conductivity {W/m-K}
  801,                                    !- Density {kg/m3}
  837.4,                                  !- Specific Heat {J/kg-K}
  0.9,                                    !- Thermal Absorptance
  0.6,                                    !- Solar Absorptance
  0.6;                                    !- Visible Absorptance

OS:Construction,
  {59761900-b765-4fdb-93bd-93111766988e}, !- Handle
  Wall1 construction,                     !- Name
  ,                                       !- Surface Rendering Name
  {50187e1d-367f-4477-8fdf-40c7ca8b9c24}, !- Layer 1
  {2f785ea2-d174-4da7-8d5f-2619bc3f969c}, !- Layer 2
  {4d0ca7ce-bcd6-46dd-8f49-5a2d672e5c2e}, !- Layer 3
  {43171710-bbc9-447b-8f75-21ab800496cb}; !- Layer 4

OS:Surface,
  {7ce92dc6-aaf2-48ac-83fb-e743216d8648}, !- Handle
  Wall2,                                  !- Name
  Wall,                                   !- Surface Type
  {662eb9d9-d956-461d-8efc-9787d9e2c220}, !- Construction Name
  {679574f2-5a1e-4a4d-b885-5886b4ae5dc1}, !- Space Name
  Outdoors,                               !- Outside Boundary Condition
  ,                                       !- Outside Boundary Condition Object
  SunExposed,                             !- Sun Exposure
  WindExposed,                            !- Wind Exposure
  ,                                       !- View Factor to Ground
  ,                                       !- Number of Vertices
  30.4089054, -26.1969504, 0,             !- X,Y,Z Vertex 1 {m}
  30.4089054, -26.1969504, 4.8768,        !- X,Y,Z Vertex 2 {m}
  30.4089054, -30.4089054, 4.8768,        !- X,Y,Z Vertex 3 {m}
  30.4089054, -30.4089054, 0;             !- X,Y,Z Vertex 4 {m}

OS:AdditionalProperties,
  {5560c002-24bb-41f9-b33e-a944c0489e11}, !- Handle
  {7ce92dc6-aaf2-48ac-83fb-e743216d8648}, !- Object Name
  Length,                                 !- Feature Name 1
  Double,                                 !- Feature Data Type 1
  13.81875,                               !- Feature Value 1
  Azimuth,                                !- Feature Name 2