
OS:Version,
  {54f735d1-27cf-4fd1-aa3b-81db2528c807}, !- Handle
  3.10.0;                                 !- Version Identifier

OS:SimulationControl,
  {f514d214-6ceb-4799-bd61-a80e88976a7e}, !- Handle
  ,                                       !- Do Zone Sizing Calculation
  ,                                       !- Do System Sizing Calculation
  ,                                       !- Do Plant Sizing Calculation
  No;                                     !- Run Simulation for Sizing Periods

OS:Timestep,
  {0ba4c4b8-1fb2-48e4-a335-378787c14575}, !- Handle
  1;                                      !- Number of Timesteps per Hour

OS:ShadowCalculation,
  {281a6cc8-c83f-4a96-9873-68c50519ef26}, !- Handle
  PolygonClipping,                        !- Shading Calculation Method
  ,                                       !- Shading Calculation Update Frequency Method
  20,                                     !- Shading Calculation Update Frequency
  200,                                    !- Maximum Figures in Shadow Overlap Calculations
  ,                                       !- Polygon Clipping Algorithm
  512,                                    !- Pixel Counting Resolution
  ,                                       !- Sky Diffuse Modeling Algorithm
  No,                                     !- Output External Shading Calculation Results
  No,                                     !- Disable Self-Shading Within Shading Zone Groups
  No;                                     !- Disable Self-Shading From Shading Zone Groups to Other Zones

OS:SurfaceConvectionAlgorithm:Outside,
  {ed88ed9f-0011-4653-b1e5-01ab6b3a03c1}, !- Handle
  DOE-2;                                  !- Algorithm

OS:SurfaceConvectionAlgorithm:Inside,
  {88446a04-88aa-45fd-978c-fb02e5ca389b}, !- Handle
  TARP;                                   !- Algorithm

OS:ZoneCapacitanceMultiplier:ResearchSpecial,
  {41ffbefa-6dbf-4e01-9cba-5b9e3115fbba}, !- Handle
  7,                                      !- Temperature Capacity Multiplier
  15,                                     !- Humidity Capacity Multiplier
  ;                                       !- Carbon Dioxide Capacity Multiplier

OS:ConvergenceLimits,
  {2a3bc12c-1588-42f3-9475-badb280bf453}, !- Handle
  0;                                      !- Minimum System Timestep {minutes}

OS:RunPeriod,
  {c4db7cee-6a29-41a9-930c-9f3493566bd8}, !- Handle
  Run Period 1,                           !- Name
  1,                                      !- Begin Month
  1,                                      !- Begin Day of Month
  12,                                     !- End Month
  31,                                     !- End Day of Month
  ,                                       !- Use Weather File Holidays and Special Days
  ,                                       !- Use Weather File Daylight Saving Period
  ,                                       !- Apply Weekend Holiday Rule
  ,                                       !- Use Weather File Rain Indicators
  ,                                       !- Use Weather File Snow Indicators
  ;                                       !- Number of Times Runperiod to be Repeated

OS:PerformancePrecisionTradeoffs,
  {b0d1bb82-ceb8-41fe-bb6c-b4d1bb482296}, !- Handle
  ,                                       !- Use Coil Direct Solutions
  CarrollMRT;                             !- Zone Radiant Exchange Algorithm

OS:WeatherFile,
  {599084f2-517a-4c66-9d12-9d2ee76b59bd}, !- Handle
  Buffalo Niagara Intl Ap,                !- City
  NY,                                     !- State Province Region
  USA,                                    !- Country
  TMY3,                                   !- Data Source
  725280,                                 !- WMO Number
  42.93,                                  !- Latitude {deg}
  -78.73,                                 !- Longitude {deg}
  -5,                                     !- Time Zone {hr}
  215,                                    !- Elevation {m}
  /Users/nmoore/github/urbanopt-example-geojson-project/example_project/weather/USA_NY_Buffalo-Greater.Buffalo.Intl.AP.725280_TMY3.epw, !- Url
  6B50E0FF,                               !- Checksum
  ,                                       !- Start Date Actual Year
  Sunday;                                 !- Start Day of Week

OS:YearDescription,
  {d9e30e74-f547-4f38-8a8d-164b383a3740}, !- Handle
  2007,                                   !- Calendar Year
  ,                                       !- Day of Week for Start Day
  ;                                       !- Is Leap Year

OS:Site,
  {38a973bf-af5d-4427-b6ed-ade3f9f8bb83}, !- Handle
  Buffalo Niagara Intl Ap_NY,             !- Name
  42.93,                                  !- Latitude {deg}
  -78.73,                                 !- Longitude {deg}
  -5,                                     !- Time Zone {hr}
  215,                                    !- Elevation {m}
  Suburbs,                                !- Terrain
  Yes;                                    !- Keep Site Location Information

OS:RunPeriodControl:DaylightSavingTime,
  {adbf8bef-3199-4316-985f-561b29276c10}, !- Handle
  Mar 12,                                 !- Start Date
  Nov 5;                                  !- End Date

OS:Site:GroundTemperature:Shallow,
  {9a9c46d4-80f2-40f7-8179-3d1198a102fc}, !- Handle
  4.30207395723828,                       !- January Surface Ground Temperature {C}
  2.29327249652502,                       !- February Surface Ground Temperature {C}
  2.13240047156047,                       !- March Surface Ground Temperature {C}
  3.08567940719286,                       !- April Surface Ground Temperature {C}
  6.91256312497526,                       !- May Surface Ground Temperature {C}
  10.7216195949507,                       !- June Surface Ground Temperature {C}
  14.0238679822574,                       !- July Surface Ground Temperature {C}
  16.1157611184724,                       !- August Surface Ground Temperature {C}
  16.2934789303462,                       !- September Surface Ground Temperature {C}
  14.5920754632847,                       !- October Surface Ground Temperature {C}
  11.374036348653,                        !- November Surface Ground Temperature {C}
  7.68182621661674;                       !- December Surface Ground Temperature {C}

OS:ThermalZone,
  {0c62b471-737c-402a-934f-6cab4969f4e0}, !- Handle
  conditioned space,                      !- Name
  1,                                      !- Multiplier
  ,                                       !- Ceiling Height {m}
  346.03186535424,                        !- Volume {m3}
  ,                                       !- Floor Area {m2}
  ,                                       !- Zone Inside Convection Algorithm
  ,                                       !- Zone Outside Convection Algorithm
  ,                                       !- Zone Conditioning Equipment List Name
  {175ede03-5641-48ee-89ca-81baa41f5d57}, !- Zone Air Inlet Port List
  {5cdc0836-88c4-4545-8695-aa1ba5b7fc2e}, !- Zone Air Exhaust Port List
  {a6892e18-0204-4c69-a120-003a9ab3afe6}, !- Zone Air Node Name
  {d8d3fef6-f1cb-4c0b-b1d5-42e6e34aa171}, !- Zone Return Air Port List
  ,                                       !- Primary Daylighting Control Name
  ,                                       !- Fraction of Zone Controlled by Primary Daylighting Control
  ,                                       !- Secondary Daylighting Control Name
  ,                                       !- Fraction of Zone Controlled by Secondary Daylighting Control
  ,                                       !- Illuminance Map Name
  ,                                       !- Group Rendering Name
  {e1056922-28f2-462a-967c-25584d93ef7d}, !- Thermostat Name
  No;                                     !- Use Ideal Air Loads

OS:Node,
  {b18729dc-956c-4740-84e9-e84d30745991}, !- Handle
  Node 1,                                 !- Name
  {a6892e18-0204-4c69-a120-003a9ab3afe6}, !- Inlet Port
  ;                                       !- Outlet Port

OS:Connection,
  {a6892e18-0204-4c69-a120-003a9ab3afe6}, !- Handle
  {0c62b471-737c-402a-934f-6cab4969f4e0}, !- Source Object
  11,                                     !- Outlet Port
  {b18729dc-956c-4740-84e9-e84d30745991}, !- Target Object
  2;                                      !- Inlet Port

OS:PortList,
  {175ede03-5641-48ee-89ca-81baa41f5d57}, !- Handle
  {0c62b471-737c-402a-934f-6cab4969f4e0}, !- HVAC Component
  {f8fb9118-f77d-43c4-b27b-67edad722bf1}; !- Port 1

OS:PortList,
  {5cdc0836-88c4-4545-8695-aa1ba5b7fc2e}, !- Handle
  {0c62b471-737c-402a-934f-6cab4969f4e0}; !- HVAC Component

OS:PortList,
  {d8d3fef6-f1cb-4c0b-b1d5-42e6e34aa171}, !- Handle
  {0c62b471-737c-402a-934f-6cab4969f4e0}, !- HVAC Component
  {bf2af87c-a014-4f67-8412-a468f901f2ad}; !- Port 1

OS:Sizing:Zone,
  {18bfacec-865f-40a5-8028-d1eb73f03852}, !- Handle
  {0c62b471-737c-402a-934f-6cab4969f4e0}, !- Zone or ZoneList Name
  SupplyAirTemperature,                   !- Zone Cooling Design Supply Air Temperature Input Method
  14,                                     !- Zone Cooling Design Supply Air Temperature {C}
  11.11,                                  !- Zone Cooling Design Supply Air Temperature Difference {deltaC}
  SupplyAirTemperature,                   !- Zone Heating Design Supply Air Temperature Input Method
  40,                                     !- Zone Heating Design Supply Air Temperature {C}
  11.11,                                  !- Zone Heating Design Supply Air Temperature Difference {deltaC}
  0.0085,                                 !- Zone Cooling Design Supply Air Humidity Ratio {kg-H2O/kg-air}
  0.008,                                  !- Zone Heating Design Supply Air Humidity Ratio {kg-H2O/kg-air}
  ,                                       !- Zone Heating Sizing Factor
  ,                                       !- Zone Cooling Sizing Factor
  DesignDay,                              !- Cooling Design Air Flow Method
  ,                                       !- Cooling Design Air Flow Rate {m3/s}
  ,                                       !- Cooling Minimum Air Flow per Zone Floor Area {m3/s-m2}
  ,                                       !- Cooling Minimum Air Flow {m3/s}
  ,                                       !- Cooling Minimum Air Flow Fraction
  DesignDay,                              !- Heating Design Air Flow Method
  ,                                       !- Heating Design Air Flow Rate {m3/s}
  ,                                       !- Heating Maximum Air Flow per Zone Floor Area {m3/s-m2}
  ,                                       !- Heating Maximum Air Flow {m3/s}
  ,                                       !- Heating Maximum Air Flow Fraction
  No,                                     !- Account for Dedicated Outdoor Air System
  NeutralSupplyAir,                       !- Dedicated Outdoor Air System Control Strategy
  autosize,                               !- Dedicated Outdoor Air Low Setpoint Temperature for Design {C}
  autosize,                               !- Dedicated Outdoor Air High Setpoint Temperature for Design {C}
  Sensible Load Only No Latent Load,      !- Zone Load Sizing Method
  HumidityRatioDifference,                !- Zone Latent Cooling Design Supply Air Humidity Ratio Input Method
  ,                                       !- Zone Dehumidification Design Supply Air Humidity Ratio {kgWater/kgDryAir}
  0.005,                                  !- Zone Cooling Design Supply Air Humidity Ratio Difference {kgWater/kgDryAir}
  HumidityRatioDifference,                !- Zone Latent Heating Design Supply Air Humidity Ratio Input Method
  ,                                       !- Zone Humidification Design Supply Air Humidity Ratio {kgWater/kgDryAir}
  0.005,                                  !- Zone Humidification Design Supply Air Humidity Ratio Difference {kgWater/kgDryAir}
  ,                                       !- Zone Humidistat Dehumidification Set Point Schedule Name
  ,                                       !- Zone Humidistat Humidification Set Point Schedule Name
  ,                                       !- Design Zone Air Distribution Effectiveness in Cooling Mode
  ,                                       !- Design Zone Air Distribution Effectiveness in Heating Mode
  ,                                       !- Design Zone Secondary Recirculation Fraction {dimensionless}
  ,                                       !- Design Minimum Zone Ventilation Efficiency {dimensionless}
  Coincident;                             !- Sizing Option

OS:ZoneHVAC:EquipmentList,
  {475e5eee-fe17-46d4-bc69-59b0768692d5}, !- Handle
  Zone HVAC Equipment List 1,             !- Name
  {0c62b471-737c-402a-934f-6cab4969f4e0}, !- Thermal Zone
  ,                                       !- Load Distribution Scheme
  {59e0239d-fa5f-4dad-be60-4f7d50f46424}, !- Zone Equipment 1
  1,                                      !- Zone Equipment Cooling Sequence 1
  1,                                      !- Zone Equipment Heating or No-Load Sequence 1
  {65f47a0c-440e-4af1-b7fc-c0276dfc3b77}, !- Zone Equipment Sequential Cooling Fraction Schedule Name 1
  {7ec3a551-ac24-4cab-b12f-7f74c5828b03}; !- Zone Equipment Sequential Heating Fraction Schedule Name 1

OS:AdditionalProperties,
  {10fd8931-7e1d-465e-ac68-38a599a0c5b6}, !- Handle
  {0c62b471-737c-402a-934f-6cab4969f4e0}, !- Object Name
  ObjectType,                             !- Feature Name 1
  String,                                 !- Feature Data Type 1
  conditioned space;                      !- Feature Value 1

OS:Space,
  {99f9b66a-55ce-4240-bc1b-904ba04f20ec}, !- Handle
  conditioned space 1,                    !- Name
  ,                                       !- Space Type Name
  ,                                       !- Default Construction Set Name
  ,                                       !- Default Schedule Set Name
  ,                                       !- Direction of Relative North {deg}
  ,                                       !- X Origin {m}
  ,                                       !- Y Origin {m}
  ,                                       !- Z Origin {m}
  ,                                       !- Building Story Name
  {0c62b471-737c-402a-934f-6cab4969f4e0}, !- Thermal Zone Name
  ,                                       !- Part of Total Floor Area
  ,                                       !- Design Specification Outdoor Air Object Name
  ,                                       !- Building Unit Name
  346.03186535424;                        !- Volume {m3}

OS:Schedule:Ruleset,
  {05d6908a-0366-412c-a78f-b51b3e760871}, !- Handle
  heating setpoint,                       !- Name
  {cb2bd93a-afed-423f-93a9-468ce7c92a65}, !- Schedule Type Limits Name
  {01e4ea48-8e62-4253-9894-e668c9bfc03f}; !- Default Day Schedule Name

OS:Schedule:Day,
  {01e4ea48-8e62-4253-9894-e668c9bfc03f}, !- Handle
  heating setpoint default day,           !- Name
  {cb2bd93a-afed-423f-93a9-468ce7c92a65}, !- Schedule Type Limits Name
  ,                                       !- Interpolate to Timestep
  24,                                     !- Hour 1
  0,                                      !- Minute 1
  0;                                      !- Value Until Time 1

OS:Schedule:Rule,
  {7e3fd04a-1dbc-4d69-8cac-bfe15a416539}, !- Handle
  heating setpoint allday rule,           !- Name
  {05d6908a-0366-412c-a78f-b51b3e760871}, !- Schedule Ruleset Name
  0,                                      !- Rule Order
  {dc3d9699-0bc7-4340-9ec8-34d512471166}, !- Day Schedule Name
  Yes,                                    !- Apply Sunday
  Yes,                                    !- Apply Monday
  Yes,                                    !- Apply Tuesday
  Yes,                                    !- Apply Wednesday
  Yes,                                    !- Apply Thursday
  Yes,                                    !- Apply Friday
  Yes,                                    !- Apply Saturday
  DateRange,                              !- Date Specification Type
  1,                                      !- Start Month
  1,                                      !- Start Day
  12,                                     !- End Month
  31;                                     !- End Day

OS:Schedule:Day,
  {dc3d9699-0bc7-4340-9ec8-34d512471166}, !- Handle
  heating setpoint day,                   !- Name
  {cb2bd93a-afed-423f-93a9-468ce7c92a65}, !- Schedule Type Limits Name
  ,                                       !- Interpolate to Timestep
  24,                                     !- Hour 1
  0,                                      !- Minute 1
  20;                                     !- Value Until Time 1

OS:Schedule:Ruleset,
  {3024534d-c7f3-4a23-a7d5-30fbd2d4d586}, !- Handle
  cooling setpoint,                       !- Name
  {cb2bd93a-afed-423f-93a9-468ce7c92a65}, !- Schedule Type Limits Name
  {c1ea68ff-e6e0-48c6-b06a-e15e1043cd85}; !- Default Day Schedule Name

OS:Schedule:Day,
  {c1ea68ff-e6e0-48c6-b06a-e15e1043cd85}, !- Handle
  cooling setpoint default day,           !- Name
  {cb2bd93a-afed-423f-93a9-468ce7c92a65}, !- Schedule Type Limits Name
  ,                                       !- Interpolate to Timestep
  24,                                     !- Hour 1
  0,                                      !- Minute 1
  0;                                      !- Value Until Time 1

OS:Schedule:Rule,
  {9e29700d-a48e-4091-aa01-7021819b9265}, !- Handle
  cooling setpoint allday rule,           !- Name
  {3024534d-c7f3-4a23-a7d5-30fbd2d4d586}, !- Schedule Ruleset Name
  0,                                      !- Rule Order
  {b4983043-a4a4-48e0-9653-38021dbcbdb5}, !- Day Schedule Name
  Yes,                                    !- Apply Sunday
  Yes,                                    !- Apply Monday
  Yes,                                    !- Apply Tuesday
  Yes,                                    !- Apply Wednesday
  Yes,                                    !- Apply Thursday
  Yes,                                    !- Apply Friday
  Yes,                                    !- Apply Saturday
  DateRange,                              !- Date Specification Type
  1,                                      !- Start Month
  1,                                      !- Start Day
  12,                                     !- End Month
  31;                                     !- End Day

OS:Schedule:Day,
  {b4983043-a4a4-48e0-9653-38021dbcbdb5}, !- Handle
  cooling setpoint day,                   !- Name
  {cb2bd93a-afed-423f-93a9-468ce7c92a65}, !- Schedule Type Limits Name
  ,                                       !- Interpolate to Timestep
  24,                                     !- Hour 1
  0,                                      !- Minute 1
  25.5555555555556;                       !- Value Until Time 1

OS:ThermostatSetpoint:DualSetpoint,
  {e1056922-28f2-462a-967c-25584d93ef7d}, !- Handle
  conditioned space temperature setpoint, !- Name
  {05d6908a-0366-412c-a78f-b51b3e760871}, !- Heating Setpoint Temperature Schedule Name
  {3024534d-c7f3-4a23-a7d5-30fbd2d4d586}, !- Cooling Setpoint Temperature Schedule Name
  0;                                      !- Temperature Difference Between Cutout And Setpoint {deltaC}

OS:ScheduleTypeLimits,
  {cb2bd93a-afed-423f-93a9-468ce7c92a65}, !- Handle
  Temperature,                            !- Name
  ,                                       !- Lower Limit Value
  ,                                       !- Upper Limit Value
  Continuous,                             !- Numeric Type
  Temperature;                            !- Unit Type

OS:Surface,
  {d4a2c53c-0b40-460b-b34b-77193cc30a64}, !- Handle
  Roof1,                                  !- Name
  RoofCeiling,                            !- Surface Type
  {70ec8b94-ddab-4255-9d6c-40cac31451ab}, !- Construction Name
  {fe89f1a9-1c0a-414a-8877-4686a64b4ea7}, !- Space Name
  Outdoors,                               !- Outside Boundary Condition
  ,                                       !- Outside Boundary Condition Object
  SunExposed,                             !- Sun Exposure
  WindExposed,                            !- Wind Exposure
  ,                                       !- View Factor to Ground
  ,                                       !- Number of Vertices
  -25.0448166683368, 35.3267874683368, 2.4384, !- X,Y,Z Vertex 1 {m}
  -25.0448166683368, 27.3603626312596, 6.42161241853859, !- X,Y,Z Vertex 2 {m}
  -16.1380829316632, 27.3603626312596, 6.42161241853859, !- X,Y,Z Vertex 3 {m}
  -16.1380829316632, 35.3267874683368, 2.4384; !- X,Y,Z Vertex 4 {m}

OS:AdditionalProperties,
  {a1debfbe-a4b3-499f-b45b-68bd769eacc9}, !- Handle
  {d4a2c53c-0b40-460b-b34b-77193cc30a64}, !- Object Name
  Length,                                 !- Feature Name 1
  Double,                                 !- Feature Data Type 1
  29.221567377538118,                     !- Feature Value 1
  Width,                                  !- Feature Name 2
  Double,                                 !- Feature Data Type 2
  29.221567377538118,                     !- Feature Value 2
  Azimuth,                                !- Feature Name 3
  Integer,                                !- Feature Data Type 3
  0,                                      !- Feature Value 3
  Tilt,                                   !- Feature Name 4
  Double,                                 !- Feature Data Type 4
  0.5,                                    !- Feature Value 4
  SurfaceType,                            !- Feature Name 5
  String,                                 !- Feature Data Type 5
  Roof;                                   !- Feature Value 5

OS:ThermalZone,
  {2d7c2ac7-a497-479a-a5c0-c872233de2fb}, !- Handle
  attic - vented,                         !- Name
  1,                                      !- Multiplier
  ,                                       !- Ceiling Height {m}
  126.003218814318,                       !- Volume {m3}
  ,                                       !- Floor Area {m2}
  ,                                       !- Zone Inside Convection Algorithm
  ,                                       !- Zone Outside Convection Algorithm
  ,                                       !- Zone Conditioning Equipment List Name
  {0d83caca-d4ab-4498-9cfc-7b4428a837c0}, !- Zone Air Inlet Port List
  {81392f4b-6e1a-44f3-a791-7dcd18c7de6a}, !- Zone Air Exhaust Port List
  {a8b74757-a077-4121-98d6-b23ce750e6c1}, !- Zone Air Node Name
  {4249cd01-0ca1-4e4e-bf65-7d5f6b3a9cef}, !- Zone Return Air Port List
  ,                                       !- Primary Daylighting Control Name
  ,                                       !- Fraction of Zone Controlled by Primary Daylighting Control
  ,                                       !- Secondary Daylighting Control Name
  ,                                       !- Fraction of Zone Controlled by Secondary Daylighting Control
  ,                                       !- Illuminance Map Name
  ,                                       !- Group Rendering Name
  ,                                       !- Thermostat Name
  No;                                     !- Use Ideal Air Loads

OS:Node,
  {27badfe8-7099-4651-b8d1-015204b7da74}, !- Handle
  Node 2,                                 !- Name
  {a8b74757-a077-4121-98d6-b23ce750e6c1}, !- Inlet Port
  ;                                       !- Outlet Port

OS:Connection,
  {a8b74757-a077-4121-98d6-b23ce750e6c1}, !- Handle
  {2d7c2ac7-a497-479a-a5c0-c872233de2fb}, !- Source Object
  11,                                     !- Outlet Port
  {27badfe8-7099-4651-b8d1-015204b7da74}, !- Target Object
  2;                                      !- Inlet Port

OS:PortList,
  {0d83caca-d4ab-4498-9cfc-7b4428a837c0}, !- Handle
  {2d7c2ac7-a497-479a-a5c0-c872233de2fb}; !- HVAC Component

OS:PortList,
  {81392f4b-6e1a-44f3-a791-7dcd18c7de6a}, !- Handle
  {2d7c2ac7-a497-479a-a5c0-c872233de2fb}; !- HVAC Component

OS:PortList,
  {4249cd01-0ca1-4e4e-bf65-7d5f6b3a9cef}, !- Handle
  {2d7c2ac7-a497-479a-a5c0-c872233de2fb}; !- HVAC Component

OS:Sizing:Zone,
  {3f244305-aa13-4608-a8e6-3309e9f7b1ef}, !- Handle
  {2d7c2ac7-a497-479a-a5c0-c872233de2fb}, !- Zone or ZoneList Name
  SupplyAirTemperature,                   !- Zone Cooling Design Supply Air Temperature Input Method
  14,                                     !- Zone Cooling Design Supply Air Temperature {C}
  11.11,                                  !- Zone Cooling Design Supply Air Temperature Difference {deltaC}
  SupplyAirTemperature,                   !- Zone Heating Design Supply Air Temperature Input Method
  40,                                     !- Zone Heating Design Supply Air Temperature {C}
  11.11,                                  !- Zone Heating Design Supply Air Temperature Difference {deltaC}
  0.0085,                                 !- Zone Cooling Design Supply Air Humidity Ratio {kg-H2O/kg-air}
  0.008,                                  !- Zone Heating Design Supply Air Humidity Ratio {kg-H2O/kg-air}
  ,                                       !- Zone Heating Sizing Factor
  ,                                       !- Zone Cooling Sizing Factor
  DesignDay,                              !- Cooling Design Air Flow Method
  ,                                       !- Cooling Design Air Flow Rate {m3/s}
  ,                                       !- Cooling Minimum Air Flow per Zone Floor Area {m3/s-m2}
  ,                                       !- Cooling Minimum Air Flow {m3/s}
  ,                                       !- Cooling Minimum Air Flow Fraction
  DesignDay,                              !- Heating Design Air Flow Method
  ,                                       !- Heating Design Air Flow Rate {m3/s}
  ,                                       !- Heating Maximum Air Flow per Zone Floor Area {m3/s-m2}
  ,                                       !- Heating Maximum Air Flow {m3/s}
  ,                                       !- Heating Maximum Air Flow Fraction
  No,                                     !- Account for Dedicated Outdoor Air System
  NeutralSupplyAir,                       !- Dedicated Outdoor Air System Control Strategy
  autosize,                               !- Dedicated Outdoor Air Low Setpoint Temperature for Design {C}
  autosize,                               !- Dedicated Outdoor Air High Setpoint Temperature for Design {C}
  Sensible Load Only No Latent Load,      !- Zone Load Sizing Method
  HumidityRatioDifference,                !- Zone Latent Cooling Design Supply Air Humidity Ratio Input Method
  ,                                       !- Zone Dehumidification Design Supply Air Humidity Ratio {kgWater/kgDryAir}
  0.005,                                  !- Zone Cooling Design Supply Air Humidity Ratio Difference {kgWater/kgDryAir}
  HumidityRatioDifference,                !- Zone Latent Heating Design Supply Air Humidity Ratio Input Method
  ,                                       !- Zone Humidification Design Supply Air Humidity Ratio {kgWater/kgDryAir}
  0.005,                                  !- Zone Humidification Design Supply Air Humidity Ratio Difference {kgWater/kgDryAir}
  ,                                       !- Zone Humidistat Dehumidification Set Point Schedule Name
  ,                                       !- Zone Humidistat Humidification Set Point Schedule Name
  ,                                       !- Design Zone Air Distribution Effectiveness in Cooling Mode
  ,                                       !- Design Zone Air Distribution Effectiveness in Heating Mode
  ,                                       !- Design Zone Secondary Recirculation Fraction {dimensionless}
  ,                                       !- Design Minimum Zone Ventilation Efficiency {dimensionless}
  Coincident;                             !- Sizing Option

OS:ZoneHVAC:EquipmentList,
  {35aaf10b-732f-42dd-9e68-223b03b8700e}, !- Handle
  Zone HVAC Equipment List 2,             !- Name
  {2d7c2ac7-a497-479a-a5c0-c872233de2fb}; !- Thermal Zone

OS:AdditionalProperties,
  {86832e81-a073-496b-9692-b134df414273}, !- Handle
  {2d7c2ac7-a497-479a-a5c0-c872233de2fb}, !- Object Name
  ObjectType,                             !- Feature Name 1
  String,                                 !- Feature Data Type 1
  attic - vented;                         !- Feature Value 1

OS:Space,
  {fe89f1a9-1c0a-414a-8877-4686a64b4ea7}, !- Handle
  attic - vented 1,                       !- Name
  ,                                       !- Space Type Name
  ,                                       !- Default Construction Set Name
  ,                                       !- Default Schedule Set Name
  ,                                       !- Direction of Relative North {deg}
  ,                                       !- X Origin {m}
  ,                                       !- Y Origin {m}
  ,                                       !- Z Origin {m}
  ,                                       !- Building Story Name
  {2d7c2ac7-a497-479a-a5c0-c872233de2fb}, !- Thermal Zone Name
  ,                                       !- Part of Total Floor Area
  ,                                       !- Design Specification Outdoor Air Object Name
  ,                                       !- Building Unit Name
  126.003218814318;                       !- Volume {m3}

OS:Material,
  {83e71bc1-abbd-4bca-8f1c-d3d71530ca6e}, !- Handle
  asphalt or fiberglass shingles,         !- Name
  Rough,                                  !- Roughness
  0.00635,                                !- Thickness {m}
  0.162714,                               !- Conductivity {W/m-K}
  1121.4,                                 !- Density {kg/m3}
  1465.45,                                !- Specific Heat {J/kg-K}
  0.9,                                    !- Thermal Absorptance
  0.85,                                   !- Solar Absorptance