
OS:Version,
  {0d73646e-6e08-4f81-89c6-98e2afd299fa}, !- Handle
  3.9.0;                                  !- Version Identifier

OS:SimulationControl,
  {7149b48d-69ef-4254-843c-b35944e1b216}, !- Handle
  ,                                       !- Do Zone Sizing Calculation
  ,                                       !- Do System Sizing Calculation
  ,                                       !- Do Plant Sizing Calculation
  No;                                     !- Run Simulation for Sizing Periods

OS:Timestep,
  {8ed3ecb0-4191-4b93-a308-beb66e55ec87}, !- Handle
  1;                                      !- Number of Timesteps per Hour

OS:ShadowCalculation,
  {5cae2cbe-3e16-4db1-afb7-112e824a1986}, !- Handle
  PolygonClipping,                        !- Shading Calculation Method
  ,                                       !- Shading Calculation Update Frequency Method
  20,                                     !- Shading Calculation Update Frequency
  200,                                    !- Maximum Figures in Shadow Overlap Calculations
  ,                                       !- Polygon Clipping Algorithm
  512,                                    !- Pixel Counting Resolution
  ,                                       !- Sky Diffuse Modeling Algorithm
  No,                                     !- Output External Shading Calculation Results
  No,                                     !- Disable Self-Shading Within Shading Zone Groups
  No;                                     !- Disable Self-Shading From Shading Zone Groups to Other Zones

OS:SurfaceConvectionAlgorithm:Outside,
  {5ef30b55-0b22-4bba-9de2-0f836e06b82e}, !- Handle
  DOE-2;                                  !- Algorithm

OS:SurfaceConvectionAlgorithm:Inside,
  {2c122f49-da09-4d81-9416-00c440f71498}, !- Handle
  TARP;                                   !- Algorithm

OS:ZoneCapacitanceMultiplier:ResearchSpecial,
  {77fa4335-ef71-4789-8ede-d2f1390c4e2a}, !- Handle
  7,                                      !- Temperature Capacity Multiplier
  15,                                     !- Humidity Capacity Multiplier
  ;                                       !- Carbon Dioxide Capacity Multiplier

OS:ConvergenceLimits,
  {ef69d67e-ffb7-4480-bab1-9e35f596d6ee}, !- Handle
  0;                                      !- Minimum System Timestep {minutes}

OS:RunPeriod,
  {e648a8e4-e0ba-481f-b469-b45127f1a71a}, !- Handle
  Run Period 1,                           !- Name
  1,                                      !- Begin Month
  1,                                      !- Begin Day of Month
  12,                                     !- End Month
  31,                                     !- End Day of Month
  ,                                       !- Use Weather File Holidays and Special Days
  ,                                       !- Use Weather File Daylight Saving Period
  ,                                       !- Apply Weekend Holiday Rule
  ,                                       !- Use Weather File Rain Indicators
  ,                                       !- Use Weather File Snow Indicators
  ;                                       !- Number of Times Runperiod to be Repeated

OS:PerformancePrecisionTradeoffs,
  {fc4ce7ba-7084-48fe-80fe-f4a530b0ec6d}, !- Handle
  ,                                       !- Use Coil Direct Solutions
  CarrollMRT;                             !- Zone Radiant Exchange Algorithm

OS:WeatherFile,
  {4b210a5d-964d-4bc2-b6aa-fe66560290c8}, !- Handle
  Buffalo Niagara Intl Ap,                !- City
  NY,                                     !- State Province Region
  USA,                                    !- Country
  TMY3,                                   !- Data Source
  725280,                                 !- WMO Number
  42.93,                                  !- Latitude {deg}
  -78.73,                                 !- Longitude {deg}
  -5,                                     !- Time Zone {hr}
  215,                                    !- Elevation {m}
  /Users/nmoore/github/urbanopt-example-geojson-project/example_project/weather/USA_NY_Buffalo-Greater.Buffalo.Intl.AP.725280_TMY3.epw, !- Url
  6B50E0FF,                               !- Checksum
  ,                                       !- Start Date Actual Year
  Sunday;                                 !- Start Day of Week

OS:YearDescription,
  {dd57e13e-0936-4383-a979-5757fdcd1763}, !- Handle
  2007,                                   !- Calendar Year
  ,                                       !- Day of Week for Start Day
  ;                                       !- Is Leap Year

OS:Site,
  {e530158e-8174-4ab9-8ecc-7e42416578cd}, !- Handle
  Buffalo Niagara Intl Ap_NY,             !- Name
  42.93,                                  !- Latitude {deg}
  -78.73,                                 !- Longitude {deg}
  -5,                                     !- Time Zone {hr}
  215,                                    !- Elevation {m}
  Suburbs,                                !- Terrain
  Yes;                                    !- Keep Site Location Information

OS:RunPeriodControl:DaylightSavingTime,
  {f111829f-15ee-46e8-b3d4-3a6a17085a25}, !- Handle
  Mar 12,                                 !- Start Date
  Nov 5;                                  !- End Date

OS:Site:GroundTemperature:Shallow,
  {ce30dbd8-9400-4351-9559-46818731a343}, !- Handle
  4.30207395723828,                       !- January Surface Ground Temperature {C}
  2.29327249652502,                       !- February Surface Ground Temperature {C}
  2.13240047156047,                       !- March Surface Ground Temperature {C}
  3.08567940719286,                       !- April Surface Ground Temperature {C}
  6.91256312497526,                       !- May Surface Ground Temperature {C}
  10.7216195949507,                       !- June Surface Ground Temperature {C}
  14.0238679822574,                       !- July Surface Ground Temperature {C}
  16.1157611184724,                       !- August Surface Ground Temperature {C}
  16.2934789303462,                       !- September Surface Ground Temperature {C}
  14.5920754632847,                       !- October Surface Ground Temperature {C}
  11.374036348653,                        !- November Surface Ground Temperature {C}
  7.68182621661674;                       !- December Surface Ground Temperature {C}

OS:ThermalZone,
  {2425469e-e2a4-4840-a21d-bb769d00dcbf}, !- Handle
  conditioned space,                      !- Name
  1,                                      !- Multiplier
  ,                                       !- Ceiling Height {m}
  346.03186535424,                        !- Volume {m3}
  ,                                       !- Floor Area {m2}
  ,                                       !- Zone Inside Convection Algorithm
  ,                                       !- Zone Outside Convection Algorithm
  ,                                       !- Zone Conditioning Equipment List Name
  {b8039753-4e08-4352-a7eb-02129cc669ce}, !- Zone Air Inlet Port List
  {423152d0-37b0-4b2c-8e1a-1d7fd67a7289}, !- Zone Air Exhaust Port List
  {5c370c65-7cc9-4838-bf9e-7240ce30ee3a}, !- Zone Air Node Name
  {e1c1a610-186c-403e-8cf7-617eeb60e2d3}, !- Zone Return Air Port List
  ,                                       !- Primary Daylighting Control Name
  ,                                       !- Fraction of Zone Controlled by Primary Daylighting Control
  ,                                       !- Secondary Daylighting Control Name
  ,                                       !- Fraction of Zone Controlled by Secondary Daylighting Control
  ,                                       !- Illuminance Map Name
  ,                                       !- Group Rendering Name
  {2d5647c4-43c3-405d-84a8-2e235cc2c80e}, !- Thermostat Name
  No;                                     !- Use Ideal Air Loads

OS:Node,
  {2d574d0b-5ea4-41e4-b66f-73c92c03a980}, !- Handle
  Node 1,                                 !- Name
  {5c370c65-7cc9-4838-bf9e-7240ce30ee3a}, !- Inlet Port
  ;                                       !- Outlet Port

OS:Connection,
  {5c370c65-7cc9-4838-bf9e-7240ce30ee3a}, !- Handle
  {2425469e-e2a4-4840-a21d-bb769d00dcbf}, !- Source Object
  11,                                     !- Outlet Port
  {2d574d0b-5ea4-41e4-b66f-73c92c03a980}, !- Target Object
  2;                                      !- Inlet Port

OS:PortList,
  {b8039753-4e08-4352-a7eb-02129cc669ce}, !- Handle
  {2425469e-e2a4-4840-a21d-bb769d00dcbf}, !- HVAC Component
  {2cf672f0-1603-4122-b6b7-7e9a7a4bbfc5}; !- Port 1

OS:PortList,
  {423152d0-37b0-4b2c-8e1a-1d7fd67a7289}, !- Handle
  {2425469e-e2a4-4840-a21d-bb769d00dcbf}; !- HVAC Component

OS:PortList,
  {e1c1a610-186c-403e-8cf7-617eeb60e2d3}, !- Handle
  {2425469e-e2a4-4840-a21d-bb769d00dcbf}, !- HVAC Component
  {910c0209-6d0c-43d1-bca6-1f5fb2a193c3}; !- Port 1

OS:Sizing:Zone,
  {9cb18767-3e56-44a7-bb12-192d249a40dd}, !- Handle
  {2425469e-e2a4-4840-a21d-bb769d00dcbf}, !- Zone or ZoneList Name
  SupplyAirTemperature,                   !- Zone Cooling Design Supply Air Temperature Input Method
  14,                                     !- Zone Cooling Design Supply Air Temperature {C}
  11.11,                                  !- Zone Cooling Design Supply Air Temperature Difference {deltaC}
  SupplyAirTemperature,                   !- Zone Heating Design Supply Air Temperature Input Method
  40,                                     !- Zone Heating Design Supply Air Temperature {C}
  11.11,                                  !- Zone Heating Design Supply Air Temperature Difference {deltaC}
  0.0085,                                 !- Zone Cooling Design Supply Air Humidity Ratio {kg-H2O/kg-air}
  0.008,                                  !- Zone Heating Design Supply Air Humidity Ratio {kg-H2O/kg-air}
  ,                                       !- Zone Heating Sizing Factor
  ,                                       !- Zone Cooling Sizing Factor
  DesignDay,                              !- Cooling Design Air Flow Method
  ,                                       !- Cooling Design Air Flow Rate {m3/s}
  ,                                       !- Cooling Minimum Air Flow per Zone Floor Area {m3/s-m2}
  ,                                       !- Cooling Minimum Air Flow {m3/s}
  ,                                       !- Cooling Minimum Air Flow Fraction
  DesignDay,                              !- Heating Design Air Flow Method
  ,                                       !- Heating Design Air Flow Rate {m3/s}
  ,                                       !- Heating Maximum Air Flow per Zone Floor Area {m3/s-m2}
  ,                                       !- Heating Maximum Air Flow {m3/s}
  ,                                       !- Heating Maximum Air Flow Fraction
  No,                                     !- Account for Dedicated Outdoor Air System
  NeutralSupplyAir,                       !- Dedicated Outdoor Air System Control Strategy
  autosize,                               !- Dedicated Outdoor Air Low Setpoint Temperature for Design {C}
  autosize,                               !- Dedicated Outdoor Air High Setpoint Temperature for Design {C}
  Sensible Load Only No Latent Load,      !- Zone Load Sizing Method
  HumidityRatioDifference,                !- Zone Latent Cooling Design Supply Air Humidity Ratio Input Method
  ,                                       !- Zone Dehumidification Design Supply Air Humidity Ratio {kgWater/kgDryAir}
  0.005,                                  !- Zone Cooling Design Supply Air Humidity Ratio Difference {kgWater/kgDryAir}
  HumidityRatioDifference,                !- Zone Latent Heating Design Supply Air Humidity Ratio Input Method
  ,                                       !- Zone Humidification Design Supply Air Humidity Ratio {kgWater/kgDryAir}
  0.005,                                  !- Zone Humidification Design Supply Air Humidity Ratio Difference {kgWater/kgDryAir}
  ,                                       !- Zone Humidistat Dehumidification Set Point Schedule Name
  ,                                       !- Zone Humidistat Humidification Set Point Schedule Name
  ,                                       !- Design Zone Air Distribution Effectiveness in Cooling Mode
  ,                                       !- Design Zone Air Distribution Effectiveness in Heating Mode
  ,                                       !- Design Zone Secondary Recirculation Fraction {dimensionless}
  ,                                       !- Design Minimum Zone Ventilation Efficiency {dimensionless}
  Coincident;                             !- Sizing Option

OS:ZoneHVAC:EquipmentList,
  {462bb802-2f15-40c8-a267-8e4beabdaa82}, !- Handle
  Zone HVAC Equipment List 1,             !- Name
  {2425469e-e2a4-4840-a21d-bb769d00dcbf}, !- Thermal Zone
  ,                                       !- Load Distribution Scheme
  {3e12fce6-a4be-45c4-b32c-7839e742bb58}, !- Zone Equipment 1
  1,                                      !- Zone Equipment Cooling Sequence 1
  1,                                      !- Zone Equipment Heating or No-Load Sequence 1
  {126eb82c-8e5a-4add-8762-2948042f1ceb}, !- Zone Equipment Sequential Cooling Fraction Schedule Name 1
  {aa78cda6-c87d-42bb-b77f-5e9babc36132}; !- Zone Equipment Sequential Heating Fraction Schedule Name 1

OS:AdditionalProperties,
  {bd206628-857d-4fe7-9086-ec43ac2153ad}, !- Handle
  {2425469e-e2a4-4840-a21d-bb769d00dcbf}, !- Object Name
  ObjectType,                             !- Feature Name 1
  String,                                 !- Feature Data Type 1
  conditioned space;                      !- Feature Value 1

OS:Space,
  {887f666c-0e2b-4f05-a32c-fddd6b6cc12e}, !- Handle
  conditioned space 1,                    !- Name
  ,                                       !- Space Type Name
  ,                                       !- Default Construction Set Name
  ,                                       !- Default Schedule Set Name
  ,                                       !- Direction of Relative North {deg}
  ,                                       !- X Origin {m}
  ,                                       !- Y Origin {m}
  ,                                       !- Z Origin {m}
  ,                                       !- Building Story Name
  {2425469e-e2a4-4840-a21d-bb769d00dcbf}, !- Thermal Zone Name
  ,                                       !- Part of Total Floor Area
  ,                                       !- Design Specification Outdoor Air Object Name
  ,                                       !- Building Unit Name
  346.03186535424;                        !- Volume {m3}

OS:Schedule:Ruleset,
  {f6feca81-e164-466d-843e-ced56bafbedc}, !- Handle
  heating setpoint,                       !- Name
  {9dbfd2a9-8adf-4c69-8cb4-f6670bdb7171}, !- Schedule Type Limits Name
  {d5c7fbdd-4045-4536-8559-33747e91ed16}; !- Default Day Schedule Name

OS:Schedule:Day,
  {d5c7fbdd-4045-4536-8559-33747e91ed16}, !- Handle
  heating setpoint default day,           !- Name
  {9dbfd2a9-8adf-4c69-8cb4-f6670bdb7171}, !- Schedule Type Limits Name
  ,                                       !- Interpolate to Timestep
  24,                                     !- Hour 1
  0,                                      !- Minute 1
  0;                                      !- Value Until Time 1

OS:Schedule:Rule,
  {93e527a2-0dbc-469f-a4c5-17d8b258ef63}, !- Handle
  heating setpoint allday rule,           !- Name
  {f6feca81-e164-466d-843e-ced56bafbedc}, !- Schedule Ruleset Name
  0,                                      !- Rule Order
  {91536a95-b689-4f7c-80bd-538112b81df4}, !- Day Schedule Name
  Yes,                                    !- Apply Sunday
  Yes,                                    !- Apply Monday
  Yes,                                    !- Apply Tuesday
  Yes,                                    !- Apply Wednesday
  Yes,                                    !- Apply Thursday
  Yes,                                    !- Apply Friday
  Yes,                                    !- Apply Saturday
  DateRange,                              !- Date Specification Type
  1,                                      !- Start Month
  1,                                      !- Start Day
  12,                                     !- End Month
  31;                                     !- End Day

OS:Schedule:Day,
  {91536a95-b689-4f7c-80bd-538112b81df4}, !- Handle
  heating setpoint day,                   !- Name
  {9dbfd2a9-8adf-4c69-8cb4-f6670bdb7171}, !- Schedule Type Limits Name
  ,                                       !- Interpolate to Timestep
  24,                                     !- Hour 1
  0,                                      !- Minute 1
  20;                                     !- Value Until Time 1

OS:Schedule:Ruleset,
  {4b193258-a2e7-4055-b16b-8e9310f363f1}, !- Handle
  cooling setpoint,                       !- Name
  {9dbfd2a9-8adf-4c69-8cb4-f6670bdb7171}, !- Schedule Type Limits Name
  {150c7bf1-d791-45ee-9c4d-481b46e7d673}; !- Default Day Schedule Name

OS:Schedule:Day,
  {150c7bf1-d791-45ee-9c4d-481b46e7d673}, !- Handle
  cooling setpoint default day,           !- Name
  {9dbfd2a9-8adf-4c69-8cb4-f6670bdb7171}, !- Schedule Type Limits Name
  ,                                       !- Interpolate to Timestep
  24,                                     !- Hour 1
  0,                                      !- Minute 1
  0;                                      !- Value Until Time 1

OS:Schedule:Rule,
  {1f534a49-0e35-42d8-a569-833f8cb3a331}, !- Handle
  cooling setpoint allday rule,           !- Name
  {4b193258-a2e7-4055-b16b-8e9310f363f1}, !- Schedule Ruleset Name
  0,                                      !- Rule Order
  {b8509ad9-5e70-45d1-85c2-1ebe728217f4}, !- Day Schedule Name
  Yes,                                    !- Apply Sunday
  Yes,                                    !- Apply Monday
  Yes,                                    !- Apply Tuesday
  Yes,                                    !- Apply Wednesday
  Yes,                                    !- Apply Thursday
  Yes,                                    !- Apply Friday
  Yes,                                    !- Apply Saturday
  DateRange,                              !- Date Specification Type
  1,                                      !- Start Month
  1,                                      !- Start Day
  12,                                     !- End Month
  31;                                     !- End Day

OS:Schedule:Day,
  {b8509ad9-5e70-45d1-85c2-1ebe728217f4}, !- Handle
  cooling setpoint day,                   !- Name
  {9dbfd2a9-8adf-4c69-8cb4-f6670bdb7171}, !- Schedule Type Limits Name
  ,                                       !- Interpolate to Timestep
  24,                                     !- Hour 1
  0,                                      !- Minute 1
  25.5555555555556;                       !- Value Until Time 1

OS:ThermostatSetpoint:DualSetpoint,
  {2d5647c4-43c3-405d-84a8-2e235cc2c80e}, !- Handle
  conditioned space temperature setpoint, !- Name
  {f6feca81-e164-466d-843e-ced56bafbedc}, !- Heating Setpoint Temperature Schedule Name
  {4b193258-a2e7-4055-b16b-8e9310f363f1}, !- Cooling Setpoint Temperature Schedule Name
  0;                                      !- Temperature Difference Between Cutout And Setpoint {deltaC}

OS:ScheduleTypeLimits,
  {9dbfd2a9-8adf-4c69-8cb4-f6670bdb7171}, !- Handle
  Temperature,                            !- Name
  ,                                       !- Lower Limit Value
  ,                                       !- Upper Limit Value
  Continuous,                             !- Numeric Type
  Temperature;                            !- Unit Type

OS:Surface,
  {db2d8edd-2165-44f2-9b1f-f281b6592e3b}, !- Handle
  Roof1,                                  !- Name
  RoofCeiling,                            !- Surface Type
  {4fc77314-fcd8-485d-b485-8ee1074682c1}, !- Construction Name
  {2c28f1d5-9d31-42ac-95c7-0041badb9cef}, !- Space Name
  Outdoors,                               !- Outside Boundary Condition
  ,                                       !- Outside Boundary Condition Object
  SunExposed,                             !- Sun Exposure
  WindExposed,                            !- Wind Exposure
  ,                                       !- View Factor to Ground
  ,                                       !- Number of Vertices
  -25.0448166683368, 35.3267874683368, 2.4384, !- X,Y,Z Vertex 1 {m}
  -25.0448166683368, 27.3603626312596, 6.42161241853859, !- X,Y,Z Vertex 2 {m}
  -16.1380829316632, 27.3603626312596, 6.42161241853859, !- X,Y,Z Vertex 3 {m}
  -16.1380829316632, 35.3267874683368, 2.4384; !- X,Y,Z Vertex 4 {m}

OS:AdditionalProperties,
  {b1431a85-dd45-43bc-a114-b2f281f34bb9}, !- Handle
  {db2d8edd-2165-44f2-9b1f-f281b6592e3b}, !- Object Name
  Length,                                 !- Feature Name 1
  Double,                                 !- Feature Data Type 1
  29.221567377538118,                     !- Feature Value 1
  Width,                                  !- Feature Name 2
  Double,                                 !- Feature Data Type 2
  29.221567377538118,                     !- Feature Value 2
  Azimuth,                                !- Feature Name 3
  Integer,                                !- Feature Data Type 3
  0,                                      !- Feature Value 3
  Tilt,                                   !- Feature Name 4
  Double,                                 !- Feature Data Type 4
  0.5,                                    !- Feature Value 4
  SurfaceType,                            !- Feature Name 5
  String,                                 !- Feature Data Type 5
  Roof;                                   !- Feature Value 5

OS:ThermalZone,
  {4626192b-91f1-482c-b9b4-8c9fd89fd573}, !- Handle
  attic - vented,                         !- Name
  1,                                      !- Multiplier
  ,                                       !- Ceiling Height {m}
  126.002877704413,                       !- Volume {m3}
  ,                                       !- Floor Area {m2}
  ,                                       !- Zone Inside Convection Algorithm
  ,                                       !- Zone Outside Convection Algorithm
  ,                                       !- Zone Conditioning Equipment List Name
  {cd4635ec-4bd0-49c1-af31-297e8367e68a}, !- Zone Air Inlet Port List
  {2c736b94-4ebd-42e5-90c6-2ec55d4de082}, !- Zone Air Exhaust Port List
  {3de9cd90-91e8-4a1b-82ff-16ca4f011f8b}, !- Zone Air Node Name
  {0005807b-27e2-45a4-b4bc-301b5fbfbece}, !- Zone Return Air Port List
  ,                                       !- Primary Daylighting Control Name
  ,                                       !- Fraction of Zone Controlled by Primary Daylighting Control
  ,                                       !- Secondary Daylighting Control Name
  ,                                       !- Fraction of Zone Controlled by Secondary Daylighting Control
  ,                                       !- Illuminance Map Name
  ,                                       !- Group Rendering Name
  ,                                       !- Thermostat Name
  No;                                     !- Use Ideal Air Loads

OS:Node,
  {ecf33db4-f6eb-417c-b4b1-965cacae0544}, !- Handle
  Node 2,                                 !- Name
  {3de9cd90-91e8-4a1b-82ff-16ca4f011f8b}, !- Inlet Port
  ;                                       !- Outlet Port

OS:Connection,
  {3de9cd90-91e8-4a1b-82ff-16ca4f011f8b}, !- Handle
  {4626192b-91f1-482c-b9b4-8c9fd89fd573}, !- Source Object
  11,                                     !- Outlet Port
  {ecf33db4-f6eb-417c-b4b1-965cacae0544}, !- Target Object
  2;                                      !- Inlet Port

OS:PortList,
  {cd4635ec-4bd0-49c1-af31-297e8367e68a}, !- Handle
  {4626192b-91f1-482c-b9b4-8c9fd89fd573}; !- HVAC Component

OS:PortList,
  {2c736b94-4ebd-42e5-90c6-2ec55d4de082}, !- Handle
  {4626192b-91f1-482c-b9b4-8c9fd89fd573}; !- HVAC Component

OS:PortList,
  {0005807b-27e2-45a4-b4bc-301b5fbfbece}, !- Handle
  {4626192b-91f1-482c-b9b4-8c9fd89fd573}; !- HVAC Component

OS:Sizing:Zone,
  {716e2179-c057-40d2-84ad-78df3406c131}, !- Handle
  {4626192b-91f1-482c-b9b4-8c9fd89fd573}, !- Zone or ZoneList Name
  SupplyAirTemperature,                   !- Zone Cooling Design Supply Air Temperature Input Method
  14,                                     !- Zone Cooling Design Supply Air Temperature {C}
  11.11,                                  !- Zone Cooling Design Supply Air Temperature Difference {deltaC}
  SupplyAirTemperature,                   !- Zone Heating Design Supply Air Temperature Input Method
  40,                                     !- Zone Heating Design Supply Air Temperature {C}
  11.11,                                  !- Zone Heating Design Supply Air Temperature Difference {deltaC}
  0.0085,                                 !- Zone Cooling Design Supply Air Humidity Ratio {kg-H2O/kg-air}
  0.008,                                  !- Zone Heating Design Supply Air Humidity Ratio {kg-H2O/kg-air}
  ,                                       !- Zone Heating Sizing Factor
  ,                                       !- Zone Cooling Sizing Factor
  DesignDay,                              !- Cooling Design Air Flow Method
  ,                                       !- Cooling Design Air Flow Rate {m3/s}
  ,                                       !- Cooling Minimum Air Flow per Zone Floor Area {m3/s-m2}
  ,                                       !- Cooling Minimum Air Flow {m3/s}
  ,                                       !- Cooling Minimum Air Flow Fraction
  DesignDay,                              !- Heating Design Air Flow Method
  ,                                       !- Heating Design Air Flow Rate {m3/s}
  ,                                       !- Heating Maximum Air Flow per Zone Floor Area {m3/s-m2}
  ,                                       !- Heating Maximum Air Flow {m3/s}
  ,                                       !- Heating Maximum Air Flow Fraction
  No,                                     !- Account for Dedicated Outdoor Air System
  NeutralSupplyAir,                       !- Dedicated Outdoor Air System Control Strategy
  autosize,                               !- Dedicated Outdoor Air Low Setpoint Temperature for Design {C}
  autosize,                               !- Dedicated Outdoor Air High Setpoint Temperature for Design {C}
  Sensible Load Only No Latent Load,      !- Zone Load Sizing Method
  HumidityRatioDifference,                !- Zone Latent Cooling Design Supply Air Humidity Ratio Input Method
  ,                                       !- Zone Dehumidification Design Supply Air Humidity Ratio {kgWater/kgDryAir}
  0.005,                                  !- Zone Cooling Design Supply Air Humidity Ratio Difference {kgWater/kgDryAir}
  HumidityRatioDifference,                !- Zone Latent Heating Design Supply Air Humidity Ratio Input Method
  ,                                       !- Zone Humidification Design Supply Air Humidity Ratio {kgWater/kgDryAir}
  0.005,                                  !- Zone Humidification Design Supply Air Humidity Ratio Difference {kgWater/kgDryAir}
  ,                                       !- Zone Humidistat Dehumidification Set Point Schedule Name
  ,                                       !- Zone Humidistat Humidification Set Point Schedule Name
  ,                                       !- Design Zone Air Distribution Effectiveness in Cooling Mode
  ,                                       !- Design Zone Air Distribution Effectiveness in Heating Mode
  ,                                       !- Design Zone Secondary Recirculation Fraction {dimensionless}
  ,                                       !- Design Minimum Zone Ventilation Efficiency {dimensionless}
  Coincident;                             !- Sizing Option

OS:ZoneHVAC:EquipmentList,
  {e41e46c2-1d80-45b7-983e-023fb4b761ca}, !- Handle
  Zone HVAC Equipment List 2,             !- Name
  {4626192b-91f1-482c-b9b4-8c9fd89fd573}; !- Thermal Zone

OS:AdditionalProperties,
  {1de63577-b039-4784-b240-78e70f31d834}, !- Handle
  {4626192b-91f1-482c-b9b4-8c9fd89fd573}, !- Object Name
  ObjectType,                             !- Feature Name 1
  String,                                 !- Feature Data Type 1
  attic - vented;                         !- Feature Value 1

OS:Space,
  {2c28f1d5-9d31-42ac-95c7-0041badb9cef}, !- Handle
  attic - vented 1,                       !- Name
  ,                                       !- Space Type Name
  ,                                       !- Default Construction Set Name
  ,                                       !- Default Schedule Set Name
  ,                                       !- Direction of Relative North {deg}
  ,                                       !- X Origin {m}
  ,                                       !- Y Origin {m}
  ,                                       !- Z Origin {m}
  ,                                       !- Building Story Name
  {4626192b-91f1-482c-b9b4-8c9fd89fd573}, !- Thermal Zone Name
  ,                                       !- Part of Total Floor Area
  ,                                       !- Design Specification Outdoor Air Object Name
  ,                                       !- Building Unit Name
  126.002877704413;                       !- Volume {m3}

OS:Material,
  {8b02bb6a-be6d-4666-a5e5-1781ccd14658}, !- Handle
  asphalt or fiberglass shingles,         !- Name
  Rough,                                  !- Roughness
  0.00635,                                !- Thickness {m}
  0.162714,                               !- Conductivity {W/m-K}
  1121.4,                                 !- Density {kg/m3}
  1465.45,                                !- Specific Heat {J/kg-K}
  0.9,                                    !- Thermal Absorptance
  0.85,                                   !- Solar Absorptance