
OS:Version,
  {22423d80-dbcf-4615-afef-e298c25c38ae}, !- Handle
  3.9.0;                                  !- Version Identifier

OS:SimulationControl,
  {d82e4fcc-9b1f-4bae-b58c-21068d67d558}, !- Handle
  ,                                       !- Do Zone Sizing Calculation
  ,                                       !- Do System Sizing Calculation
  ,                                       !- Do Plant Sizing Calculation
  No;                                     !- Run Simulation for Sizing Periods

OS:Timestep,
  {0b7fb10f-dae6-4fb2-9339-3284390a980e}, !- Handle
  1;                                      !- Number of Timesteps per Hour

OS:ShadowCalculation,
  {879e3bfb-21c5-4b62-887e-16c7041a1cbf}, !- Handle
  PolygonClipping,                        !- Shading Calculation Method
  ,                                       !- Shading Calculation Update Frequency Method
  20,                                     !- Shading Calculation Update Frequency
  200,                                    !- Maximum Figures in Shadow Overlap Calculations
  ,                                       !- Polygon Clipping Algorithm
  512,                                    !- Pixel Counting Resolution
  ,                                       !- Sky Diffuse Modeling Algorithm
  No,                                     !- Output External Shading Calculation Results
  No,                                     !- Disable Self-Shading Within Shading Zone Groups
  No;                                     !- Disable Self-Shading From Shading Zone Groups to Other Zones

OS:SurfaceConvectionAlgorithm:Outside,
  {92b62de4-a85b-4b26-b39b-f9852737bd12}, !- Handle
  DOE-2;                                  !- Algorithm

OS:SurfaceConvectionAlgorithm:Inside,
  {31eba89f-d8ba-4973-b523-78980c9ccd5c}, !- Handle
  TARP;                                   !- Algorithm

OS:ZoneCapacitanceMultiplier:ResearchSpecial,
  {607985c4-0f0f-4625-a931-0f2a622ae993}, !- Handle
  7,                                      !- Temperature Capacity Multiplier
  15,                                     !- Humidity Capacity Multiplier
  ;                                       !- Carbon Dioxide Capacity Multiplier

OS:ConvergenceLimits,
  {59de3730-8f3f-40e0-9dfc-84baa844f39a}, !- Handle
  0;                                      !- Minimum System Timestep {minutes}

OS:RunPeriod,
  {98cf62eb-7568-4b03-ad42-88522414c0e3}, !- Handle
  Run Period 1,                           !- Name
  1,                                      !- Begin Month
  1,                                      !- Begin Day of Month
  12,                                     !- End Month
  31,                                     !- End Day of Month
  ,                                       !- Use Weather File Holidays and Special Days
  ,                                       !- Use Weather File Daylight Saving Period
  ,                                       !- Apply Weekend Holiday Rule
  ,                                       !- Use Weather File Rain Indicators
  ,                                       !- Use Weather File Snow Indicators
  ;                                       !- Number of Times Runperiod to be Repeated

OS:PerformancePrecisionTradeoffs,
  {c5ab0872-57c7-4f3e-af3c-dfbb7910594f}, !- Handle
  ,                                       !- Use Coil Direct Solutions
  CarrollMRT;                             !- Zone Radiant Exchange Algorithm

OS:WeatherFile,
  {86a8dd6b-d2dc-4a86-b888-4b23be24acd8}, !- Handle
  Buffalo Niagara Intl Ap,                !- City
  NY,                                     !- State Province Region
  USA,                                    !- Country
  TMY3,                                   !- Data Source
  725280,                                 !- WMO Number
  42.93,                                  !- Latitude {deg}
  -78.73,                                 !- Longitude {deg}
  -5,                                     !- Time Zone {hr}
  215,                                    !- Elevation {m}
  /Users/nmoore/github/urbanopt-example-geojson-project/example_project/weather/USA_NY_Buffalo-Greater.Buffalo.Intl.AP.725280_TMY3.epw, !- Url
  6B50E0FF,                               !- Checksum
  ,                                       !- Start Date Actual Year
  Sunday;                                 !- Start Day of Week

OS:YearDescription,
  {a2f99368-327b-49ec-ad35-6b30d2036a12}, !- Handle
  2007,                                   !- Calendar Year
  ,                                       !- Day of Week for Start Day
  ;                                       !- Is Leap Year

OS:Site,
  {e66b3154-703a-477e-a137-4d0238baa777}, !- Handle
  Buffalo Niagara Intl Ap_NY,             !- Name
  42.93,                                  !- Latitude {deg}
  -78.73,                                 !- Longitude {deg}
  -5,                                     !- Time Zone {hr}
  215,                                    !- Elevation {m}
  Suburbs,                                !- Terrain
  Yes;                                    !- Keep Site Location Information

OS:RunPeriodControl:DaylightSavingTime,
  {8dcc77d2-ae53-4412-b7a0-630a70a0f127}, !- Handle
  Mar 12,                                 !- Start Date
  Nov 5;                                  !- End Date

OS:Site:GroundTemperature:Shallow,
  {9473d7d4-7f1c-4fc0-bb9a-fd87046f97f8}, !- Handle
  4.30207395723828,                       !- January Surface Ground Temperature {C}
  2.29327249652502,                       !- February Surface Ground Temperature {C}
  2.13240047156047,                       !- March Surface Ground Temperature {C}
  3.08567940719286,                       !- April Surface Ground Temperature {C}
  6.91256312497526,                       !- May Surface Ground Temperature {C}
  10.7216195949507,                       !- June Surface Ground Temperature {C}
  14.0238679822574,                       !- July Surface Ground Temperature {C}
  16.1157611184724,                       !- August Surface Ground Temperature {C}
  16.2934789303462,                       !- September Surface Ground Temperature {C}
  14.5920754632847,                       !- October Surface Ground Temperature {C}
  11.374036348653,                        !- November Surface Ground Temperature {C}
  7.68182621661674;                       !- December Surface Ground Temperature {C}

OS:ThermalZone,
  {03ddc047-6c15-40b8-b89f-05042e9b87b1}, !- Handle
  conditioned space,                      !- Name
  1,                                      !- Multiplier
  ,                                       !- Ceiling Height {m}
  692.06373070848,                        !- Volume {m3}
  ,                                       !- Floor Area {m2}
  ,                                       !- Zone Inside Convection Algorithm
  ,                                       !- Zone Outside Convection Algorithm
  ,                                       !- Zone Conditioning Equipment List Name
  {cf1e638e-d9f4-4624-9825-be055eaac15e}, !- Zone Air Inlet Port List
  {0394423a-2708-4a86-b114-06df9eafe3ff}, !- Zone Air Exhaust Port List
  {46ed8bac-be30-4c11-9713-a6f5a5b57836}, !- Zone Air Node Name
  {712734ad-99c9-4c85-9389-401493c714c2}, !- Zone Return Air Port List
  ,                                       !- Primary Daylighting Control Name
  ,                                       !- Fraction of Zone Controlled by Primary Daylighting Control
  ,                                       !- Secondary Daylighting Control Name
  ,                                       !- Fraction of Zone Controlled by Secondary Daylighting Control
  ,                                       !- Illuminance Map Name
  ,                                       !- Group Rendering Name
  {b55007c2-6e0c-440b-9d2e-52979278756b}, !- Thermostat Name
  No;                                     !- Use Ideal Air Loads

OS:Node,
  {071d40bb-da66-40fc-a924-7950f0a4b7be}, !- Handle
  Node 1,                                 !- Name
  {46ed8bac-be30-4c11-9713-a6f5a5b57836}, !- Inlet Port
  ;                                       !- Outlet Port

OS:Connection,
  {46ed8bac-be30-4c11-9713-a6f5a5b57836}, !- Handle
  {03ddc047-6c15-40b8-b89f-05042e9b87b1}, !- Source Object
  11,                                     !- Outlet Port
  {071d40bb-da66-40fc-a924-7950f0a4b7be}, !- Target Object
  2;                                      !- Inlet Port

OS:PortList,
  {cf1e638e-d9f4-4624-9825-be055eaac15e}, !- Handle
  {03ddc047-6c15-40b8-b89f-05042e9b87b1}, !- HVAC Component
  {20fb2233-05cf-49a1-acdd-07e6300b199c}; !- Port 1

OS:PortList,
  {0394423a-2708-4a86-b114-06df9eafe3ff}, !- Handle
  {03ddc047-6c15-40b8-b89f-05042e9b87b1}; !- HVAC Component

OS:PortList,
  {712734ad-99c9-4c85-9389-401493c714c2}, !- Handle
  {03ddc047-6c15-40b8-b89f-05042e9b87b1}, !- HVAC Component
  {bca12c64-1b25-4fd9-8d25-36d6ae482e56}; !- Port 1

OS:Sizing:Zone,
  {1ccb6d5c-5532-4145-b1c5-ed94184b2b09}, !- Handle
  {03ddc047-6c15-40b8-b89f-05042e9b87b1}, !- Zone or ZoneList Name
  SupplyAirTemperature,                   !- Zone Cooling Design Supply Air Temperature Input Method
  14,                                     !- Zone Cooling Design Supply Air Temperature {C}
  11.11,                                  !- Zone Cooling Design Supply Air Temperature Difference {deltaC}
  SupplyAirTemperature,                   !- Zone Heating Design Supply Air Temperature Input Method
  40,                                     !- Zone Heating Design Supply Air Temperature {C}
  11.11,                                  !- Zone Heating Design Supply Air Temperature Difference {deltaC}
  0.0085,                                 !- Zone Cooling Design Supply Air Humidity Ratio {kg-H2O/kg-air}
  0.008,                                  !- Zone Heating Design Supply Air Humidity Ratio {kg-H2O/kg-air}
  ,                                       !- Zone Heating Sizing Factor
  ,                                       !- Zone Cooling Sizing Factor
  DesignDay,                              !- Cooling Design Air Flow Method
  ,                                       !- Cooling Design Air Flow Rate {m3/s}
  ,                                       !- Cooling Minimum Air Flow per Zone Floor Area {m3/s-m2}
  ,                                       !- Cooling Minimum Air Flow {m3/s}
  ,                                       !- Cooling Minimum Air Flow Fraction
  DesignDay,                              !- Heating Design Air Flow Method
  ,                                       !- Heating Design Air Flow Rate {m3/s}
  ,                                       !- Heating Maximum Air Flow per Zone Floor Area {m3/s-m2}
  ,                                       !- Heating Maximum Air Flow {m3/s}
  ,                                       !- Heating Maximum Air Flow Fraction
  No,                                     !- Account for Dedicated Outdoor Air System
  NeutralSupplyAir,                       !- Dedicated Outdoor Air System Control Strategy
  autosize,                               !- Dedicated Outdoor Air Low Setpoint Temperature for Design {C}
  autosize,                               !- Dedicated Outdoor Air High Setpoint Temperature for Design {C}
  Sensible Load Only No Latent Load,      !- Zone Load Sizing Method
  HumidityRatioDifference,                !- Zone Latent Cooling Design Supply Air Humidity Ratio Input Method
  ,                                       !- Zone Dehumidification Design Supply Air Humidity Ratio {kgWater/kgDryAir}
  0.005,                                  !- Zone Cooling Design Supply Air Humidity Ratio Difference {kgWater/kgDryAir}
  HumidityRatioDifference,                !- Zone Latent Heating Design Supply Air Humidity Ratio Input Method
  ,                                       !- Zone Humidification Design Supply Air Humidity Ratio {kgWater/kgDryAir}
  0.005,                                  !- Zone Humidification Design Supply Air Humidity Ratio Difference {kgWater/kgDryAir}
  ,                                       !- Zone Humidistat Dehumidification Set Point Schedule Name
  ,                                       !- Zone Humidistat Humidification Set Point Schedule Name
  ,                                       !- Design Zone Air Distribution Effectiveness in Cooling Mode
  ,                                       !- Design Zone Air Distribution Effectiveness in Heating Mode
  ,                                       !- Design Zone Secondary Recirculation Fraction {dimensionless}
  ,                                       !- Design Minimum Zone Ventilation Efficiency {dimensionless}
  Coincident;                             !- Sizing Option

OS:ZoneHVAC:EquipmentList,
  {09a8cba8-9bbe-44c6-8df8-5e1161516c7e}, !- Handle
  Zone HVAC Equipment List 1,             !- Name
  {03ddc047-6c15-40b8-b89f-05042e9b87b1}, !- Thermal Zone
  ,                                       !- Load Distribution Scheme
  {7273b8ad-f146-4124-a53a-a0ecdae2badf}, !- Zone Equipment 1
  1,                                      !- Zone Equipment Cooling Sequence 1
  1,                                      !- Zone Equipment Heating or No-Load Sequence 1
  {6f13b502-cdd1-4cca-bca7-e2a427ab9923}, !- Zone Equipment Sequential Cooling Fraction Schedule Name 1
  {1a26d690-708a-42eb-a514-9873f6577ade}; !- Zone Equipment Sequential Heating Fraction Schedule Name 1

OS:AdditionalProperties,
  {c85371d4-53b8-4ef5-83ae-8dbcd0726fc2}, !- Handle
  {03ddc047-6c15-40b8-b89f-05042e9b87b1}, !- Object Name
  ObjectType,                             !- Feature Name 1
  String,                                 !- Feature Data Type 1
  conditioned space;                      !- Feature Value 1

OS:Space,
  {fb14b7d0-c1a9-4392-b8cf-5ed55e638820}, !- Handle
  conditioned space 1,                    !- Name
  ,                                       !- Space Type Name
  ,                                       !- Default Construction Set Name
  ,                                       !- Default Schedule Set Name
  ,                                       !- Direction of Relative North {deg}
  ,                                       !- X Origin {m}
  ,                                       !- Y Origin {m}
  ,                                       !- Z Origin {m}
  ,                                       !- Building Story Name
  {03ddc047-6c15-40b8-b89f-05042e9b87b1}, !- Thermal Zone Name
  ,                                       !- Part of Total Floor Area
  ,                                       !- Design Specification Outdoor Air Object Name
  ,                                       !- Building Unit Name
  692.06373070848;                        !- Volume {m3}

OS:Schedule:Ruleset,
  {e46f2c2e-8691-42c2-9e46-67fef2dfa384}, !- Handle
  heating setpoint,                       !- Name
  {77515672-a73f-4aee-b71d-a1180ae8e781}, !- Schedule Type Limits Name
  {87763f4b-44b2-46ed-9894-b5d2db04fbe5}; !- Default Day Schedule Name

OS:Schedule:Day,
  {87763f4b-44b2-46ed-9894-b5d2db04fbe5}, !- Handle
  heating setpoint default day,           !- Name
  {77515672-a73f-4aee-b71d-a1180ae8e781}, !- Schedule Type Limits Name
  ,                                       !- Interpolate to Timestep
  24,                                     !- Hour 1
  0,                                      !- Minute 1
  0;                                      !- Value Until Time 1

OS:Schedule:Rule,
  {eae5ba03-b69e-49f3-a516-8ae9ea178d4f}, !- Handle
  heating setpoint allday rule,           !- Name
  {e46f2c2e-8691-42c2-9e46-67fef2dfa384}, !- Schedule Ruleset Name
  0,                                      !- Rule Order
  {1165ba96-0037-4453-9b3f-0e0c3fbcfa75}, !- Day Schedule Name
  Yes,                                    !- Apply Sunday
  Yes,                                    !- Apply Monday
  Yes,                                    !- Apply Tuesday
  Yes,                                    !- Apply Wednesday
  Yes,                                    !- Apply Thursday
  Yes,                                    !- Apply Friday
  Yes,                                    !- Apply Saturday
  DateRange,                              !- Date Specification Type
  1,                                      !- Start Month
  1,                                      !- Start Day
  12,                                     !- End Month
  31;                                     !- End Day

OS:Schedule:Day,
  {1165ba96-0037-4453-9b3f-0e0c3fbcfa75}, !- Handle
  heating setpoint day,                   !- Name
  {77515672-a73f-4aee-b71d-a1180ae8e781}, !- Schedule Type Limits Name
  ,                                       !- Interpolate to Timestep
  24,                                     !- Hour 1
  0,                                      !- Minute 1
  20;                                     !- Value Until Time 1

OS:Schedule:Ruleset,
  {03509a1e-1e5d-4998-b805-041c8c41df72}, !- Handle
  cooling setpoint,                       !- Name
  {77515672-a73f-4aee-b71d-a1180ae8e781}, !- Schedule Type Limits Name
  {9b712ec1-1d23-4215-af35-f868c645cc4c}; !- Default Day Schedule Name

OS:Schedule:Day,
  {9b712ec1-1d23-4215-af35-f868c645cc4c}, !- Handle
  cooling setpoint default day,           !- Name
  {77515672-a73f-4aee-b71d-a1180ae8e781}, !- Schedule Type Limits Name
  ,                                       !- Interpolate to Timestep
  24,                                     !- Hour 1
  0,                                      !- Minute 1
  0;                                      !- Value Until Time 1

OS:Schedule:Rule,
  {e27d679e-398e-4cb5-bed2-dd5b1b2ad106}, !- Handle
  cooling setpoint allday rule,           !- Name
  {03509a1e-1e5d-4998-b805-041c8c41df72}, !- Schedule Ruleset Name
  0,                                      !- Rule Order
  {43f622af-bc65-4761-a2b8-aab1ee789f26}, !- Day Schedule Name
  Yes,                                    !- Apply Sunday
  Yes,                                    !- Apply Monday
  Yes,                                    !- Apply Tuesday
  Yes,                                    !- Apply Wednesday
  Yes,                                    !- Apply Thursday
  Yes,                                    !- Apply Friday
  Yes,                                    !- Apply Saturday
  DateRange,                              !- Date Specification Type
  1,                                      !- Start Month
  1,                                      !- Start Day
  12,                                     !- End Month
  31;                                     !- End Day

OS:Schedule:Day,
  {43f622af-bc65-4761-a2b8-aab1ee789f26}, !- Handle
  cooling setpoint day,                   !- Name
  {77515672-a73f-4aee-b71d-a1180ae8e781}, !- Schedule Type Limits Name
  ,                                       !- Interpolate to Timestep
  24,                                     !- Hour 1
  0,                                      !- Minute 1
  25.5555555555556;                       !- Value Until Time 1

OS:ThermostatSetpoint:DualSetpoint,
  {b55007c2-6e0c-440b-9d2e-52979278756b}, !- Handle
  conditioned space temperature setpoint, !- Name
  {e46f2c2e-8691-42c2-9e46-67fef2dfa384}, !- Heating Setpoint Temperature Schedule Name
  {03509a1e-1e5d-4998-b805-041c8c41df72}, !- Cooling Setpoint Temperature Schedule Name
  0;                                      !- Temperature Difference Between Cutout And Setpoint {deltaC}

OS:ScheduleTypeLimits,
  {77515672-a73f-4aee-b71d-a1180ae8e781}, !- Handle
  Temperature,                            !- Name
  ,                                       !- Lower Limit Value
  ,                                       !- Upper Limit Value
  Continuous,                             !- Numeric Type
  Temperature;                            !- Unit Type

OS:Surface,
  {2568f0da-0111-4ee4-a6f0-a869fd7c63be}, !- Handle
  Roof1,                                  !- Name
  RoofCeiling,                            !- Surface Type
  {3445c2ed-e4ab-4b66-a368-01661126a583}, !- Construction Name
  {a760ba4f-55c9-47bc-b96b-d8903963aceb}, !- Space Name
  Outdoors,                               !- Outside Boundary Condition
  ,                                       !- Outside Boundary Condition Object
  SunExposed,                             !- Sun Exposure
  WindExposed,                            !- Wind Exposure
  ,                                       !- View Factor to Ground
  ,                                       !- Number of Vertices
  -26.9347048849634, 58.0557891618865, 2.4384, !- X,Y,Z Vertex 1 {m}
  -26.9347048849634, 46.7895631136661, 8.0715130241102, !- X,Y,Z Vertex 2 {m}
  -14.3386812381136, 46.7895631136661, 8.0715130241102, !- X,Y,Z Vertex 3 {m}
  -14.3386812381136, 58.0557891618865, 2.4384; !- X,Y,Z Vertex 4 {m}

OS:AdditionalProperties,
  {5cca7acc-327c-43e5-8161-0e818fdd9fbe}, !- Handle
  {2568f0da-0111-4ee4-a6f0-a869fd7c63be}, !- Object Name
  Length,                                 !- Feature Name 1
  Double,                                 !- Feature Data Type 1
  41.325536899113608,                     !- Feature Value 1
  Width,                                  !- Feature Name 2
  Double,                                 !- Feature Data Type 2
  41.325536899113601,                     !- Feature Value 2
  Azimuth,                                !- Feature Name 3
  Integer,                                !- Feature Data Type 3
  0,                                      !- Feature Value 3
  Tilt,                                   !- Feature Name 4
  Double,                                 !- Feature Data Type 4
  0.5,                                    !- Feature Value 4
  SurfaceType,                            !- Feature Name 5
  String,                                 !- Feature Data Type 5
  Roof;                                   !- Feature Value 5

OS:ThermalZone,
  {603a2270-08d5-4758-8a53-593dc8c1c9fd}, !- Handle
  attic - vented,                         !- Name
  1,                                      !- Multiplier
  ,                                       !- Ceiling Height {m}
  356.389957095237,                       !- Volume {m3}
  ,                                       !- Floor Area {m2}
  ,                                       !- Zone Inside Convection Algorithm
  ,                                       !- Zone Outside Convection Algorithm
  ,                                       !- Zone Conditioning Equipment List Name
  {130c5f40-f651-4800-947b-6e02caf34506}, !- Zone Air Inlet Port List
  {71cc20df-526a-4d83-bb5d-0c24f62f966a}, !- Zone Air Exhaust Port List
  {d79150b0-e833-4412-b70f-01d0a5ba7509}, !- Zone Air Node Name
  {d018a0f0-4e23-4645-aa7f-805f767ea764}, !- Zone Return Air Port List
  ,                                       !- Primary Daylighting Control Name
  ,                                       !- Fraction of Zone Controlled by Primary Daylighting Control
  ,                                       !- Secondary Daylighting Control Name
  ,                                       !- Fraction of Zone Controlled by Secondary Daylighting Control
  ,                                       !- Illuminance Map Name
  ,                                       !- Group Rendering Name
  ,                                       !- Thermostat Name
  No;                                     !- Use Ideal Air Loads

OS:Node,
  {a31c1edd-b838-4e81-8dc7-a4fe7755242d}, !- Handle
  Node 2,                                 !- Name
  {d79150b0-e833-4412-b70f-01d0a5ba7509}, !- Inlet Port
  ;                                       !- Outlet Port

OS:Connection,
  {d79150b0-e833-4412-b70f-01d0a5ba7509}, !- Handle
  {603a2270-08d5-4758-8a53-593dc8c1c9fd}, !- Source Object
  11,                                     !- Outlet Port
  {a31c1edd-b838-4e81-8dc7-a4fe7755242d}, !- Target Object
  2;                                      !- Inlet Port

OS:PortList,
  {130c5f40-f651-4800-947b-6e02caf34506}, !- Handle
  {603a2270-08d5-4758-8a53-593dc8c1c9fd}; !- HVAC Component

OS:PortList,
  {71cc20df-526a-4d83-bb5d-0c24f62f966a}, !- Handle
  {603a2270-08d5-4758-8a53-593dc8c1c9fd}; !- HVAC Component

OS:PortList,
  {d018a0f0-4e23-4645-aa7f-805f767ea764}, !- Handle
  {603a2270-08d5-4758-8a53-593dc8c1c9fd}; !- HVAC Component

OS:Sizing:Zone,
  {948b40fd-408e-442d-b349-d12f4e1544e5}, !- Handle
  {603a2270-08d5-4758-8a53-593dc8c1c9fd}, !- Zone or ZoneList Name
  SupplyAirTemperature,                   !- Zone Cooling Design Supply Air Temperature Input Method
  14,                                     !- Zone Cooling Design Supply Air Temperature {C}
  11.11,                                  !- Zone Cooling Design Supply Air Temperature Difference {deltaC}
  SupplyAirTemperature,                   !- Zone Heating Design Supply Air Temperature Input Method
  40,                                     !- Zone Heating Design Supply Air Temperature {C}
  11.11,                                  !- Zone Heating Design Supply Air Temperature Difference {deltaC}
  0.0085,                                 !- Zone Cooling Design Supply Air Humidity Ratio {kg-H2O/kg-air}
  0.008,                                  !- Zone Heating Design Supply Air Humidity Ratio {kg-H2O/kg-air}
  ,                                       !- Zone Heating Sizing Factor
  ,                                       !- Zone Cooling Sizing Factor
  DesignDay,                              !- Cooling Design Air Flow Method
  ,                                       !- Cooling Design Air Flow Rate {m3/s}
  ,                                       !- Cooling Minimum Air Flow per Zone Floor Area {m3/s-m2}
  ,                                       !- Cooling Minimum Air Flow {m3/s}
  ,                                       !- Cooling Minimum Air Flow Fraction
  DesignDay,                              !- Heating Design Air Flow Method
  ,                                       !- Heating Design Air Flow Rate {m3/s}
  ,                                       !- Heating Maximum Air Flow per Zone Floor Area {m3/s-m2}
  ,                                       !- Heating Maximum Air Flow {m3/s}
  ,                                       !- Heating Maximum Air Flow Fraction
  No,                                     !- Account for Dedicated Outdoor Air System
  NeutralSupplyAir,                       !- Dedicated Outdoor Air System Control Strategy
  autosize,                               !- Dedicated Outdoor Air Low Setpoint Temperature for Design {C}
  autosize,                               !- Dedicated Outdoor Air High Setpoint Temperature for Design {C}
  Sensible Load Only No Latent Load,      !- Zone Load Sizing Method
  HumidityRatioDifference,                !- Zone Latent Cooling Design Supply Air Humidity Ratio Input Method
  ,                                       !- Zone Dehumidification Design Supply Air Humidity Ratio {kgWater/kgDryAir}
  0.005,                                  !- Zone Cooling Design Supply Air Humidity Ratio Difference {kgWater/kgDryAir}
  HumidityRatioDifference,                !- Zone Latent Heating Design Supply Air Humidity Ratio Input Method
  ,                                       !- Zone Humidification Design Supply Air Humidity Ratio {kgWater/kgDryAir}
  0.005,                                  !- Zone Humidification Design Supply Air Humidity Ratio Difference {kgWater/kgDryAir}
  ,                                       !- Zone Humidistat Dehumidification Set Point Schedule Name
  ,                                       !- Zone Humidistat Humidification Set Point Schedule Name
  ,                                       !- Design Zone Air Distribution Effectiveness in Cooling Mode
  ,                                       !- Design Zone Air Distribution Effectiveness in Heating Mode
  ,                                       !- Design Zone Secondary Recirculation Fraction {dimensionless}
  ,                                       !- Design Minimum Zone Ventilation Efficiency {dimensionless}
  Coincident;                             !- Sizing Option

OS:ZoneHVAC:EquipmentList,
  {3fb7f505-9f1a-48cb-98ff-43bac262adba}, !- Handle
  Zone HVAC Equipment List 2,             !- Name
  {603a2270-08d5-4758-8a53-593dc8c1c9fd}; !- Thermal Zone

OS:AdditionalProperties,
  {574b95d9-5c56-4e1d-9888-e653c6d08f88}, !- Handle
  {603a2270-08d5-4758-8a53-593dc8c1c9fd}, !- Object Name
  ObjectType,                             !- Feature Name 1
  String,                                 !- Feature Data Type 1
  attic - vented;                         !- Feature Value 1

OS:Space,
  {a760ba4f-55c9-47bc-b96b-d8903963aceb}, !- Handle
  attic - vented 1,                       !- Name
  ,                                       !- Space Type Name
  ,                                       !- Default Construction Set Name
  ,                                       !- Default Schedule Set Name
  ,                                       !- Direction of Relative North {deg}
  ,                                       !- X Origin {m}
  ,                                       !- Y Origin {m}
  ,                                       !- Z Origin {m}
  ,                                       !- Building Story Name
  {603a2270-08d5-4758-8a53-593dc8c1c9fd}, !- Thermal Zone Name
  ,                                       !- Part of Total Floor Area
  ,                                       !- Design Specification Outdoor Air Object Name
  ,                                       !- Building Unit Name
  356.389957095237;                       !- Volume {m3}

OS:Material,
  {c991c74d-2a58-4ef0-a68a-45cef3436dfc}, !- Handle
  asphalt or fiberglass shingles,         !- Name
  Rough,                                  !- Roughness
  0.00635,                                !- Thickness {m}
  0.162714,                               !- Conductivity {W/m-K}
  1121.4,                                 !- Density {kg/m3}
  1465.45,                                !- Specific Heat {J/kg-K}
  0.9,                                    !- Thermal Absorptance
  0.85,                                   !- Solar Absorptance