
OS:Version,
  {7db250fc-029e-42e2-ad31-061b5b40c06d}, !- Handle
  3.10.0;                                 !- Version Identifier

OS:SimulationControl,
  {fb6f0816-0d1c-4c46-8912-5e226baa89cf}, !- Handle
  ,                                       !- Do Zone Sizing Calculation
  ,                                       !- Do System Sizing Calculation
  ,                                       !- Do Plant Sizing Calculation
  No;                                     !- Run Simulation for Sizing Periods

OS:Timestep,
  {d770253c-2f43-417e-80a2-c7f0f9c22acb}, !- Handle
  1;                                      !- Number of Timesteps per Hour

OS:ShadowCalculation,
  {b5f33120-0463-428f-a497-6554f8e4338a}, !- Handle
  PolygonClipping,                        !- Shading Calculation Method
  ,                                       !- Shading Calculation Update Frequency Method
  20,                                     !- Shading Calculation Update Frequency
  200,                                    !- Maximum Figures in Shadow Overlap Calculations
  ,                                       !- Polygon Clipping Algorithm
  512,                                    !- Pixel Counting Resolution
  ,                                       !- Sky Diffuse Modeling Algorithm
  No,                                     !- Output External Shading Calculation Results
  No,                                     !- Disable Self-Shading Within Shading Zone Groups
  No;                                     !- Disable Self-Shading From Shading Zone Groups to Other Zones

OS:SurfaceConvectionAlgorithm:Outside,
  {9de83976-58c4-41e8-8dde-aedf3f1854e3}, !- Handle
  DOE-2;                                  !- Algorithm

OS:SurfaceConvectionAlgorithm:Inside,
  {6d04978b-718f-42a0-b2a5-999ae432a791}, !- Handle
  TARP;                                   !- Algorithm

OS:ZoneCapacitanceMultiplier:ResearchSpecial,
  {947502ea-0eec-4f46-b046-7ef812b729ad}, !- Handle
  7,                                      !- Temperature Capacity Multiplier
  15,                                     !- Humidity Capacity Multiplier
  ;                                       !- Carbon Dioxide Capacity Multiplier

OS:ConvergenceLimits,
  {d283f298-ae49-4bfd-86b5-0354e82bebec}, !- Handle
  0;                                      !- Minimum System Timestep {minutes}

OS:RunPeriod,
  {e20ba86f-cac6-44bc-b4d0-b88aafa1199a}, !- Handle
  Run Period 1,                           !- Name
  1,                                      !- Begin Month
  1,                                      !- Begin Day of Month
  12,                                     !- End Month
  31,                                     !- End Day of Month
  ,                                       !- Use Weather File Holidays and Special Days
  ,                                       !- Use Weather File Daylight Saving Period
  ,                                       !- Apply Weekend Holiday Rule
  ,                                       !- Use Weather File Rain Indicators
  ,                                       !- Use Weather File Snow Indicators
  ;                                       !- Number of Times Runperiod to be Repeated

OS:PerformancePrecisionTradeoffs,
  {94aea894-8a0f-4fdb-b670-4b923308563f}, !- Handle
  ,                                       !- Use Coil Direct Solutions
  CarrollMRT;                             !- Zone Radiant Exchange Algorithm

OS:WeatherFile,
  {e0351e1c-91b0-4188-8872-ad58c246bfe3}, !- Handle
  Buffalo Niagara Intl Ap,                !- City
  NY,                                     !- State Province Region
  USA,                                    !- Country
  TMY3,                                   !- Data Source
  725280,                                 !- WMO Number
  42.93,                                  !- Latitude {deg}
  -78.73,                                 !- Longitude {deg}
  -5,                                     !- Time Zone {hr}
  215,                                    !- Elevation {m}
  /Users/nmoore/github/urbanopt-example-geojson-project/example_project/weather/USA_NY_Buffalo-Greater.Buffalo.Intl.AP.725280_TMY3.epw, !- Url
  6B50E0FF,                               !- Checksum
  ,                                       !- Start Date Actual Year
  Sunday;                                 !- Start Day of Week

OS:YearDescription,
  {b9e21cba-8b54-48dc-a52f-e5cfc9f2835e}, !- Handle
  2007,                                   !- Calendar Year
  ,                                       !- Day of Week for Start Day
  ;                                       !- Is Leap Year

OS:Site,
  {1e747b4d-70ba-4221-8d01-d6d60c94242f}, !- Handle
  Buffalo Niagara Intl Ap_NY,             !- Name
  42.93,                                  !- Latitude {deg}
  -78.73,                                 !- Longitude {deg}
  -5,                                     !- Time Zone {hr}
  215,                                    !- Elevation {m}
  Suburbs,                                !- Terrain
  Yes;                                    !- Keep Site Location Information

OS:RunPeriodControl:DaylightSavingTime,
  {8556b816-bd7b-4a31-ae97-ea2ee72c753a}, !- Handle
  Mar 12,                                 !- Start Date
  Nov 5;                                  !- End Date

OS:Site:GroundTemperature:Shallow,
  {ffecc9e0-6137-4e26-93ec-708c760c0f05}, !- Handle
  4.30207395723828,                       !- January Surface Ground Temperature {C}
  2.29327249652502,                       !- February Surface Ground Temperature {C}
  2.13240047156047,                       !- March Surface Ground Temperature {C}
  3.08567940719286,                       !- April Surface Ground Temperature {C}
  6.91256312497526,                       !- May Surface Ground Temperature {C}
  10.7216195949507,                       !- June Surface Ground Temperature {C}
  14.0238679822574,                       !- July Surface Ground Temperature {C}
  16.1157611184724,                       !- August Surface Ground Temperature {C}
  16.2934789303462,                       !- September Surface Ground Temperature {C}
  14.5920754632847,                       !- October Surface Ground Temperature {C}
  11.374036348653,                        !- November Surface Ground Temperature {C}
  7.68182621661674;                       !- December Surface Ground Temperature {C}

OS:ThermalZone,
  {b9e7c982-f6f6-4cb5-b14c-61232296b484}, !- Handle
  conditioned space,                      !- Name
  1,                                      !- Multiplier
  ,                                       !- Ceiling Height {m}
  692.06373070848,                        !- Volume {m3}
  ,                                       !- Floor Area {m2}
  ,                                       !- Zone Inside Convection Algorithm
  ,                                       !- Zone Outside Convection Algorithm
  ,                                       !- Zone Conditioning Equipment List Name
  {02239bc9-0d5d-4a6e-9466-0138a024f5d8}, !- Zone Air Inlet Port List
  {6c5784d0-6908-4076-a7ef-722990e1d69a}, !- Zone Air Exhaust Port List
  {dd8afebb-9f4a-46dd-bd07-734bd1d929e2}, !- Zone Air Node Name
  {2f75a68b-e64b-48d6-b9f2-2df45b8e6d7f}, !- Zone Return Air Port List
  ,                                       !- Primary Daylighting Control Name
  ,                                       !- Fraction of Zone Controlled by Primary Daylighting Control
  ,                                       !- Secondary Daylighting Control Name
  ,                                       !- Fraction of Zone Controlled by Secondary Daylighting Control
  ,                                       !- Illuminance Map Name
  ,                                       !- Group Rendering Name
  {895d33bd-167e-45cb-bb0f-e34f2377f17e}, !- Thermostat Name
  No;                                     !- Use Ideal Air Loads

OS:Node,
  {887d372a-a0a8-4050-a90f-a91d9f8462fe}, !- Handle
  Node 1,                                 !- Name
  {dd8afebb-9f4a-46dd-bd07-734bd1d929e2}, !- Inlet Port
  ;                                       !- Outlet Port

OS:Connection,
  {dd8afebb-9f4a-46dd-bd07-734bd1d929e2}, !- Handle
  {b9e7c982-f6f6-4cb5-b14c-61232296b484}, !- Source Object
  11,                                     !- Outlet Port
  {887d372a-a0a8-4050-a90f-a91d9f8462fe}, !- Target Object
  2;                                      !- Inlet Port

OS:PortList,
  {02239bc9-0d5d-4a6e-9466-0138a024f5d8}, !- Handle
  {b9e7c982-f6f6-4cb5-b14c-61232296b484}, !- HVAC Component
  {0e8259fd-5678-42f7-8cc2-7f754ddb3c82}; !- Port 1

OS:PortList,
  {6c5784d0-6908-4076-a7ef-722990e1d69a}, !- Handle
  {b9e7c982-f6f6-4cb5-b14c-61232296b484}; !- HVAC Component

OS:PortList,
  {2f75a68b-e64b-48d6-b9f2-2df45b8e6d7f}, !- Handle
  {b9e7c982-f6f6-4cb5-b14c-61232296b484}, !- HVAC Component
  {9cfd366d-29f1-4399-b19c-784cee63d8b9}; !- Port 1

OS:Sizing:Zone,
  {38689f43-ca67-4296-a0bb-c80a29d12895}, !- Handle
  {b9e7c982-f6f6-4cb5-b14c-61232296b484}, !- Zone or ZoneList Name
  SupplyAirTemperature,                   !- Zone Cooling Design Supply Air Temperature Input Method
  14,                                     !- Zone Cooling Design Supply Air Temperature {C}
  11.11,                                  !- Zone Cooling Design Supply Air Temperature Difference {deltaC}
  SupplyAirTemperature,                   !- Zone Heating Design Supply Air Temperature Input Method
  40,                                     !- Zone Heating Design Supply Air Temperature {C}
  11.11,                                  !- Zone Heating Design Supply Air Temperature Difference {deltaC}
  0.0085,                                 !- Zone Cooling Design Supply Air Humidity Ratio {kg-H2O/kg-air}
  0.008,                                  !- Zone Heating Design Supply Air Humidity Ratio {kg-H2O/kg-air}
  ,                                       !- Zone Heating Sizing Factor
  ,                                       !- Zone Cooling Sizing Factor
  DesignDay,                              !- Cooling Design Air Flow Method
  ,                                       !- Cooling Design Air Flow Rate {m3/s}
  ,                                       !- Cooling Minimum Air Flow per Zone Floor Area {m3/s-m2}
  ,                                       !- Cooling Minimum Air Flow {m3/s}
  ,                                       !- Cooling Minimum Air Flow Fraction
  DesignDay,                              !- Heating Design Air Flow Method
  ,                                       !- Heating Design Air Flow Rate {m3/s}
  ,                                       !- Heating Maximum Air Flow per Zone Floor Area {m3/s-m2}
  ,                                       !- Heating Maximum Air Flow {m3/s}
  ,                                       !- Heating Maximum Air Flow Fraction
  No,                                     !- Account for Dedicated Outdoor Air System
  NeutralSupplyAir,                       !- Dedicated Outdoor Air System Control Strategy
  autosize,                               !- Dedicated Outdoor Air Low Setpoint Temperature for Design {C}
  autosize,                               !- Dedicated Outdoor Air High Setpoint Temperature for Design {C}
  Sensible Load Only No Latent Load,      !- Zone Load Sizing Method
  HumidityRatioDifference,                !- Zone Latent Cooling Design Supply Air Humidity Ratio Input Method
  ,                                       !- Zone Dehumidification Design Supply Air Humidity Ratio {kgWater/kgDryAir}
  0.005,                                  !- Zone Cooling Design Supply Air Humidity Ratio Difference {kgWater/kgDryAir}
  HumidityRatioDifference,                !- Zone Latent Heating Design Supply Air Humidity Ratio Input Method
  ,                                       !- Zone Humidification Design Supply Air Humidity Ratio {kgWater/kgDryAir}
  0.005,                                  !- Zone Humidification Design Supply Air Humidity Ratio Difference {kgWater/kgDryAir}
  ,                                       !- Zone Humidistat Dehumidification Set Point Schedule Name
  ,                                       !- Zone Humidistat Humidification Set Point Schedule Name
  ,                                       !- Design Zone Air Distribution Effectiveness in Cooling Mode
  ,                                       !- Design Zone Air Distribution Effectiveness in Heating Mode
  ,                                       !- Design Zone Secondary Recirculation Fraction {dimensionless}
  ,                                       !- Design Minimum Zone Ventilation Efficiency {dimensionless}
  Coincident;                             !- Sizing Option

OS:ZoneHVAC:EquipmentList,
  {e63119fb-c833-45ee-9d06-0158d0a05756}, !- Handle
  Zone HVAC Equipment List 1,             !- Name
  {b9e7c982-f6f6-4cb5-b14c-61232296b484}, !- Thermal Zone
  ,                                       !- Load Distribution Scheme
  {19e469c1-7a50-4438-88e1-abd9a1d4aa17}, !- Zone Equipment 1
  1,                                      !- Zone Equipment Cooling Sequence 1
  1,                                      !- Zone Equipment Heating or No-Load Sequence 1
  {053e2985-7480-4c23-b281-5ba9ed971c56}, !- Zone Equipment Sequential Cooling Fraction Schedule Name 1
  {70258cad-525b-4dce-91a2-1608a80988be}; !- Zone Equipment Sequential Heating Fraction Schedule Name 1

OS:AdditionalProperties,
  {6b89131e-5d38-41d4-ad07-a27d0c277962}, !- Handle
  {b9e7c982-f6f6-4cb5-b14c-61232296b484}, !- Object Name
  ObjectType,                             !- Feature Name 1
  String,                                 !- Feature Data Type 1
  conditioned space;                      !- Feature Value 1

OS:Space,
  {26da203c-f448-4ec8-9624-5c775357430c}, !- Handle
  conditioned space 1,                    !- Name
  ,                                       !- Space Type Name
  ,                                       !- Default Construction Set Name
  ,                                       !- Default Schedule Set Name
  ,                                       !- Direction of Relative North {deg}
  ,                                       !- X Origin {m}
  ,                                       !- Y Origin {m}
  ,                                       !- Z Origin {m}
  ,                                       !- Building Story Name
  {b9e7c982-f6f6-4cb5-b14c-61232296b484}, !- Thermal Zone Name
  ,                                       !- Part of Total Floor Area
  ,                                       !- Design Specification Outdoor Air Object Name
  ,                                       !- Building Unit Name
  692.06373070848;                        !- Volume {m3}

OS:Schedule:Ruleset,
  {0273272a-350c-423c-a8ca-21f1894ebb2c}, !- Handle
  heating setpoint,                       !- Name
  {7509e0d9-a585-438b-9f54-13cf504767b8}, !- Schedule Type Limits Name
  {34eacfaa-48c3-4eeb-9232-cf47b33beefa}; !- Default Day Schedule Name

OS:Schedule:Day,
  {34eacfaa-48c3-4eeb-9232-cf47b33beefa}, !- Handle
  heating setpoint default day,           !- Name
  {7509e0d9-a585-438b-9f54-13cf504767b8}, !- Schedule Type Limits Name
  ,                                       !- Interpolate to Timestep
  24,                                     !- Hour 1
  0,                                      !- Minute 1
  0;                                      !- Value Until Time 1

OS:Schedule:Rule,
  {1a7f96cb-ba6c-4e47-b32f-fd65a550a519}, !- Handle
  heating setpoint allday rule,           !- Name
  {0273272a-350c-423c-a8ca-21f1894ebb2c}, !- Schedule Ruleset Name
  0,                                      !- Rule Order
  {3b32be2a-e285-4ccf-a7eb-3f5ea35f2920}, !- Day Schedule Name
  Yes,                                    !- Apply Sunday
  Yes,                                    !- Apply Monday
  Yes,                                    !- Apply Tuesday
  Yes,                                    !- Apply Wednesday
  Yes,                                    !- Apply Thursday
  Yes,                                    !- Apply Friday
  Yes,                                    !- Apply Saturday
  DateRange,                              !- Date Specification Type
  1,                                      !- Start Month
  1,                                      !- Start Day
  12,                                     !- End Month
  31;                                     !- End Day

OS:Schedule:Day,
  {3b32be2a-e285-4ccf-a7eb-3f5ea35f2920}, !- Handle
  heating setpoint day,                   !- Name
  {7509e0d9-a585-438b-9f54-13cf504767b8}, !- Schedule Type Limits Name
  ,                                       !- Interpolate to Timestep
  24,                                     !- Hour 1
  0,                                      !- Minute 1
  20;                                     !- Value Until Time 1

OS:Schedule:Ruleset,
  {13ebef69-28a8-4e9f-80b7-58c6b5fa8a53}, !- Handle
  cooling setpoint,                       !- Name
  {7509e0d9-a585-438b-9f54-13cf504767b8}, !- Schedule Type Limits Name
  {3c58d17c-adaa-4953-9a02-0fcd691d8cbf}; !- Default Day Schedule Name

OS:Schedule:Day,
  {3c58d17c-adaa-4953-9a02-0fcd691d8cbf}, !- Handle
  cooling setpoint default day,           !- Name
  {7509e0d9-a585-438b-9f54-13cf504767b8}, !- Schedule Type Limits Name
  ,                                       !- Interpolate to Timestep
  24,                                     !- Hour 1
  0,                                      !- Minute 1
  0;                                      !- Value Until Time 1

OS:Schedule:Rule,
  {2d0a9323-6d23-42db-97a7-61514a714f76}, !- Handle
  cooling setpoint allday rule,           !- Name
  {13ebef69-28a8-4e9f-80b7-58c6b5fa8a53}, !- Schedule Ruleset Name
  0,                                      !- Rule Order
  {faec2aa9-df15-49d5-9e23-9b09f2980fca}, !- Day Schedule Name
  Yes,                                    !- Apply Sunday
  Yes,                                    !- Apply Monday
  Yes,                                    !- Apply Tuesday
  Yes,                                    !- Apply Wednesday
  Yes,                                    !- Apply Thursday
  Yes,                                    !- Apply Friday
  Yes,                                    !- Apply Saturday
  DateRange,                              !- Date Specification Type
  1,                                      !- Start Month
  1,                                      !- Start Day
  12,                                     !- End Month
  31;                                     !- End Day

OS:Schedule:Day,
  {faec2aa9-df15-49d5-9e23-9b09f2980fca}, !- Handle
  cooling setpoint day,                   !- Name
  {7509e0d9-a585-438b-9f54-13cf504767b8}, !- Schedule Type Limits Name
  ,                                       !- Interpolate to Timestep
  24,                                     !- Hour 1
  0,                                      !- Minute 1
  25.5555555555556;                       !- Value Until Time 1

OS:ThermostatSetpoint:DualSetpoint,
  {895d33bd-167e-45cb-bb0f-e34f2377f17e}, !- Handle
  conditioned space temperature setpoint, !- Name
  {0273272a-350c-423c-a8ca-21f1894ebb2c}, !- Heating Setpoint Temperature Schedule Name
  {13ebef69-28a8-4e9f-80b7-58c6b5fa8a53}, !- Cooling Setpoint Temperature Schedule Name
  0;                                      !- Temperature Difference Between Cutout And Setpoint {deltaC}

OS:ScheduleTypeLimits,
  {7509e0d9-a585-438b-9f54-13cf504767b8}, !- Handle
  Temperature,                            !- Name
  ,                                       !- Lower Limit Value
  ,                                       !- Upper Limit Value
  Continuous,                             !- Numeric Type
  Temperature;                            !- Unit Type

OS:Surface,
  {89f5e07c-db23-4695-a430-09046905ae95}, !- Handle
  Roof1,                                  !- Name
  RoofCeiling,                            !- Surface Type
  {0cf30aec-f314-4ab6-a909-a3ced38216e3}, !- Construction Name
  {9cce9f42-9e5c-42d5-bc1b-bd7f8b5f8f37}, !- Space Name
  Outdoors,                               !- Outside Boundary Condition
  ,                                       !- Outside Boundary Condition Object
  SunExposed,                             !- Sun Exposure
  WindExposed,                            !- Wind Exposure
  ,                                       !- View Factor to Ground
  ,                                       !- Number of Vertices
  -26.9347048849634, 58.0557891618865, 2.4384, !- X,Y,Z Vertex 1 {m}
  -26.9347048849634, 46.7895631136661, 8.0715130241102, !- X,Y,Z Vertex 2 {m}
  -14.3386812381136, 46.7895631136661, 8.0715130241102, !- X,Y,Z Vertex 3 {m}
  -14.3386812381136, 58.0557891618865, 2.4384; !- X,Y,Z Vertex 4 {m}

OS:AdditionalProperties,
  {55b6b4af-575f-4dd2-90d1-8579d9427e63}, !- Handle
  {89f5e07c-db23-4695-a430-09046905ae95}, !- Object Name
  Length,                                 !- Feature Name 1
  Double,                                 !- Feature Data Type 1
  41.325536899113608,                     !- Feature Value 1
  Width,                                  !- Feature Name 2
  Double,                                 !- Feature Data Type 2
  41.325536899113601,                     !- Feature Value 2
  Azimuth,                                !- Feature Name 3
  Integer,                                !- Feature Data Type 3
  0,                                      !- Feature Value 3
  Tilt,                                   !- Feature Name 4
  Double,                                 !- Feature Data Type 4
  0.5,                                    !- Feature Value 4
  SurfaceType,                            !- Feature Name 5
  String,                                 !- Feature Data Type 5
  Roof;                                   !- Feature Value 5

OS:ThermalZone,
  {f051df7b-a351-4335-b14c-e81642d93a04}, !- Handle
  attic - vented,                         !- Name
  1,                                      !- Multiplier
  ,                                       !- Ceiling Height {m}
  356.390921899745,                       !- Volume {m3}
  ,                                       !- Floor Area {m2}
  ,                                       !- Zone Inside Convection Algorithm
  ,                                       !- Zone Outside Convection Algorithm
  ,                                       !- Zone Conditioning Equipment List Name
  {86671973-4c2a-4134-8328-e01a1186984f}, !- Zone Air Inlet Port List
  {972e7733-3cdc-4ead-b5a2-d481ec83d400}, !- Zone Air Exhaust Port List
  {a2575459-3b3a-4e44-be4a-3e6e7574a035}, !- Zone Air Node Name
  {d3b3d194-75d6-49d4-aaeb-328e59e4eb31}, !- Zone Return Air Port List
  ,                                       !- Primary Daylighting Control Name
  ,                                       !- Fraction of Zone Controlled by Primary Daylighting Control
  ,                                       !- Secondary Daylighting Control Name
  ,                                       !- Fraction of Zone Controlled by Secondary Daylighting Control
  ,                                       !- Illuminance Map Name
  ,                                       !- Group Rendering Name
  ,                                       !- Thermostat Name
  No;                                     !- Use Ideal Air Loads

OS:Node,
  {770358a9-a96b-4f3c-9fbc-167930eead82}, !- Handle
  Node 2,                                 !- Name
  {a2575459-3b3a-4e44-be4a-3e6e7574a035}, !- Inlet Port
  ;                                       !- Outlet Port

OS:Connection,
  {a2575459-3b3a-4e44-be4a-3e6e7574a035}, !- Handle
  {f051df7b-a351-4335-b14c-e81642d93a04}, !- Source Object
  11,                                     !- Outlet Port
  {770358a9-a96b-4f3c-9fbc-167930eead82}, !- Target Object
  2;                                      !- Inlet Port

OS:PortList,
  {86671973-4c2a-4134-8328-e01a1186984f}, !- Handle
  {f051df7b-a351-4335-b14c-e81642d93a04}; !- HVAC Component

OS:PortList,
  {972e7733-3cdc-4ead-b5a2-d481ec83d400}, !- Handle
  {f051df7b-a351-4335-b14c-e81642d93a04}; !- HVAC Component

OS:PortList,
  {d3b3d194-75d6-49d4-aaeb-328e59e4eb31}, !- Handle
  {f051df7b-a351-4335-b14c-e81642d93a04}; !- HVAC Component

OS:Sizing:Zone,
  {b187d4b8-9276-4517-a09d-f7d407880c4c}, !- Handle
  {f051df7b-a351-4335-b14c-e81642d93a04}, !- Zone or ZoneList Name
  SupplyAirTemperature,                   !- Zone Cooling Design Supply Air Temperature Input Method
  14,                                     !- Zone Cooling Design Supply Air Temperature {C}
  11.11,                                  !- Zone Cooling Design Supply Air Temperature Difference {deltaC}
  SupplyAirTemperature,                   !- Zone Heating Design Supply Air Temperature Input Method
  40,                                     !- Zone Heating Design Supply Air Temperature {C}
  11.11,                                  !- Zone Heating Design Supply Air Temperature Difference {deltaC}
  0.0085,                                 !- Zone Cooling Design Supply Air Humidity Ratio {kg-H2O/kg-air}
  0.008,                                  !- Zone Heating Design Supply Air Humidity Ratio {kg-H2O/kg-air}
  ,                                       !- Zone Heating Sizing Factor
  ,                                       !- Zone Cooling Sizing Factor
  DesignDay,                              !- Cooling Design Air Flow Method
  ,                                       !- Cooling Design Air Flow Rate {m3/s}
  ,                                       !- Cooling Minimum Air Flow per Zone Floor Area {m3/s-m2}
  ,                                       !- Cooling Minimum Air Flow {m3/s}
  ,                                       !- Cooling Minimum Air Flow Fraction
  DesignDay,                              !- Heating Design Air Flow Method
  ,                                       !- Heating Design Air Flow Rate {m3/s}
  ,                                       !- Heating Maximum Air Flow per Zone Floor Area {m3/s-m2}
  ,                                       !- Heating Maximum Air Flow {m3/s}
  ,                                       !- Heating Maximum Air Flow Fraction
  No,                                     !- Account for Dedicated Outdoor Air System
  NeutralSupplyAir,                       !- Dedicated Outdoor Air System Control Strategy
  autosize,                               !- Dedicated Outdoor Air Low Setpoint Temperature for Design {C}
  autosize,                               !- Dedicated Outdoor Air High Setpoint Temperature for Design {C}
  Sensible Load Only No Latent Load,      !- Zone Load Sizing Method
  HumidityRatioDifference,                !- Zone Latent Cooling Design Supply Air Humidity Ratio Input Method
  ,                                       !- Zone Dehumidification Design Supply Air Humidity Ratio {kgWater/kgDryAir}
  0.005,                                  !- Zone Cooling Design Supply Air Humidity Ratio Difference {kgWater/kgDryAir}
  HumidityRatioDifference,                !- Zone Latent Heating Design Supply Air Humidity Ratio Input Method
  ,                                       !- Zone Humidification Design Supply Air Humidity Ratio {kgWater/kgDryAir}
  0.005,                                  !- Zone Humidification Design Supply Air Humidity Ratio Difference {kgWater/kgDryAir}
  ,                                       !- Zone Humidistat Dehumidification Set Point Schedule Name
  ,                                       !- Zone Humidistat Humidification Set Point Schedule Name
  ,                                       !- Design Zone Air Distribution Effectiveness in Cooling Mode
  ,                                       !- Design Zone Air Distribution Effectiveness in Heating Mode
  ,                                       !- Design Zone Secondary Recirculation Fraction {dimensionless}
  ,                                       !- Design Minimum Zone Ventilation Efficiency {dimensionless}
  Coincident;                             !- Sizing Option

OS:ZoneHVAC:EquipmentList,
  {f5d4df21-9cc5-4217-8e49-6e1588f5ce3a}, !- Handle
  Zone HVAC Equipment List 2,             !- Name
  {f051df7b-a351-4335-b14c-e81642d93a04}; !- Thermal Zone

OS:AdditionalProperties,
  {21e3a5a8-a53b-4274-987c-c1c3b705fd9c}, !- Handle
  {f051df7b-a351-4335-b14c-e81642d93a04}, !- Object Name
  ObjectType,                             !- Feature Name 1
  String,                                 !- Feature Data Type 1
  attic - vented;                         !- Feature Value 1

OS:Space,
  {9cce9f42-9e5c-42d5-bc1b-bd7f8b5f8f37}, !- Handle
  attic - vented 1,                       !- Name
  ,                                       !- Space Type Name
  ,                                       !- Default Construction Set Name
  ,                                       !- Default Schedule Set Name
  ,                                       !- Direction of Relative North {deg}
  ,                                       !- X Origin {m}
  ,                                       !- Y Origin {m}
  ,                                       !- Z Origin {m}
  ,                                       !- Building Story Name
  {f051df7b-a351-4335-b14c-e81642d93a04}, !- Thermal Zone Name
  ,                                       !- Part of Total Floor Area
  ,                                       !- Design Specification Outdoor Air Object Name
  ,                                       !- Building Unit Name
  356.390921899745;                       !- Volume {m3}

OS:Material,
  {091a2534-af92-4e6e-b1bd-b1793605213b}, !- Handle
  asphalt or fiberglass shingles,         !- Name
  Rough,                                  !- Roughness
  0.00635,                                !- Thickness {m}
  0.162714,                               !- Conductivity {W/m-K}
  1121.4,                                 !- Density {kg/m3}
  1465.45,                                !- Specific Heat {J/kg-K}
  0.9,                                    !- Thermal Absorptance
  0.85,                                   !- Solar Absorptance