
OS:Version,
  {ac3234f8-12b0-4d5a-993b-9260c8785ec9}, !- Handle
  3.9.0;                                  !- Version Identifier

OS:SimulationControl,
  {73e0f5c1-5eb2-4f86-a22f-f2f486ae70b2}, !- Handle
  ,                                       !- Do Zone Sizing Calculation
  ,                                       !- Do System Sizing Calculation
  ,                                       !- Do Plant Sizing Calculation
  No;                                     !- Run Simulation for Sizing Periods

OS:Timestep,
  {e6aa4a59-6016-4940-b933-1bc7db192c4a}, !- Handle
  1;                                      !- Number of Timesteps per Hour

OS:ShadowCalculation,
  {daf33af6-42f0-470f-b61d-7add098fc2ee}, !- Handle
  PolygonClipping,                        !- Shading Calculation Method
  ,                                       !- Shading Calculation Update Frequency Method
  20,                                     !- Shading Calculation Update Frequency
  200,                                    !- Maximum Figures in Shadow Overlap Calculations
  ,                                       !- Polygon Clipping Algorithm
  512,                                    !- Pixel Counting Resolution
  ,                                       !- Sky Diffuse Modeling Algorithm
  No,                                     !- Output External Shading Calculation Results
  No,                                     !- Disable Self-Shading Within Shading Zone Groups
  No;                                     !- Disable Self-Shading From Shading Zone Groups to Other Zones

OS:SurfaceConvectionAlgorithm:Outside,
  {e61a7921-2c94-4e55-84f6-cf51e6a29ecc}, !- Handle
  DOE-2;                                  !- Algorithm

OS:SurfaceConvectionAlgorithm:Inside,
  {4dc85e52-c58c-47e3-95e2-2129be083332}, !- Handle
  TARP;                                   !- Algorithm

OS:ZoneCapacitanceMultiplier:ResearchSpecial,
  {34fda51a-806d-465b-8323-c4ab38acec8f}, !- Handle
  7,                                      !- Temperature Capacity Multiplier
  15,                                     !- Humidity Capacity Multiplier
  ;                                       !- Carbon Dioxide Capacity Multiplier

OS:ConvergenceLimits,
  {fd6a5e08-4d18-489b-9f4d-47d22b9beb6f}, !- Handle
  0;                                      !- Minimum System Timestep {minutes}

OS:RunPeriod,
  {21c4360b-8ede-401e-9070-b828f9dba341}, !- Handle
  Run Period 1,                           !- Name
  1,                                      !- Begin Month
  1,                                      !- Begin Day of Month
  12,                                     !- End Month
  31,                                     !- End Day of Month
  ,                                       !- Use Weather File Holidays and Special Days
  ,                                       !- Use Weather File Daylight Saving Period
  ,                                       !- Apply Weekend Holiday Rule
  ,                                       !- Use Weather File Rain Indicators
  ,                                       !- Use Weather File Snow Indicators
  ;                                       !- Number of Times Runperiod to be Repeated

OS:PerformancePrecisionTradeoffs,
  {f3939617-1103-44fc-849f-308b2a547bb9}, !- Handle
  ,                                       !- Use Coil Direct Solutions
  CarrollMRT;                             !- Zone Radiant Exchange Algorithm

OS:WeatherFile,
  {7ba7dca1-32fc-4346-bbc5-2bfbf5a5306b}, !- Handle
  Buffalo Niagara Intl Ap,                !- City
  NY,                                     !- State Province Region
  USA,                                    !- Country
  TMY3,                                   !- Data Source
  725280,                                 !- WMO Number
  42.93,                                  !- Latitude {deg}
  -78.73,                                 !- Longitude {deg}
  -5,                                     !- Time Zone {hr}
  215,                                    !- Elevation {m}
  /Users/nmoore/github/urbanopt-example-geojson-project/example_project/weather/USA_NY_Buffalo-Greater.Buffalo.Intl.AP.725280_TMY3.epw, !- Url
  6B50E0FF,                               !- Checksum
  ,                                       !- Start Date Actual Year
  Sunday;                                 !- Start Day of Week

OS:YearDescription,
  {95b2908c-6544-4994-acbf-f24b01432216}, !- Handle
  2007,                                   !- Calendar Year
  ,                                       !- Day of Week for Start Day
  ;                                       !- Is Leap Year

OS:Site,
  {b33a9b29-c916-440c-ae9e-ba83c21b05f2}, !- Handle
  Buffalo Niagara Intl Ap_NY,             !- Name
  42.93,                                  !- Latitude {deg}
  -78.73,                                 !- Longitude {deg}
  -5,                                     !- Time Zone {hr}
  215,                                    !- Elevation {m}
  Suburbs,                                !- Terrain
  Yes;                                    !- Keep Site Location Information

OS:RunPeriodControl:DaylightSavingTime,
  {6f3c87ab-1476-4368-b559-a66707b731fb}, !- Handle
  Mar 12,                                 !- Start Date
  Nov 5;                                  !- End Date

OS:Site:GroundTemperature:Shallow,
  {f7c07820-adde-4cd6-bfa0-d4314ba4e26d}, !- Handle
  4.30207395723828,                       !- January Surface Ground Temperature {C}
  2.29327249652502,                       !- February Surface Ground Temperature {C}
  2.13240047156047,                       !- March Surface Ground Temperature {C}
  3.08567940719286,                       !- April Surface Ground Temperature {C}
  6.91256312497526,                       !- May Surface Ground Temperature {C}
  10.7216195949507,                       !- June Surface Ground Temperature {C}
  14.0238679822574,                       !- July Surface Ground Temperature {C}
  16.1157611184724,                       !- August Surface Ground Temperature {C}
  16.2934789303462,                       !- September Surface Ground Temperature {C}
  14.5920754632847,                       !- October Surface Ground Temperature {C}
  11.374036348653,                        !- November Surface Ground Temperature {C}
  7.68182621661674;                       !- December Surface Ground Temperature {C}

OS:ThermalZone,
  {c2358aa6-959b-4af5-91f9-6e0c316e75c7}, !- Handle
  conditioned space,                      !- Name
  1,                                      !- Multiplier
  ,                                       !- Ceiling Height {m}
  692.06373070848,                        !- Volume {m3}
  ,                                       !- Floor Area {m2}
  ,                                       !- Zone Inside Convection Algorithm
  ,                                       !- Zone Outside Convection Algorithm
  ,                                       !- Zone Conditioning Equipment List Name
  {5de0f732-d6e9-4c26-a746-9f65fa74eec5}, !- Zone Air Inlet Port List
  {46d855e0-64be-4828-8cfb-7b28404ab57e}, !- Zone Air Exhaust Port List
  {a43b324a-e4d6-4edb-bbaf-e77bdcddca09}, !- Zone Air Node Name
  {4b152349-43dd-40b3-819c-87aeaae26a28}, !- Zone Return Air Port List
  ,                                       !- Primary Daylighting Control Name
  ,                                       !- Fraction of Zone Controlled by Primary Daylighting Control
  ,                                       !- Secondary Daylighting Control Name
  ,                                       !- Fraction of Zone Controlled by Secondary Daylighting Control
  ,                                       !- Illuminance Map Name
  ,                                       !- Group Rendering Name
  {73761ac5-83e2-4609-9888-a2574da66372}, !- Thermostat Name
  No;                                     !- Use Ideal Air Loads

OS:Node,
  {66eaef06-17f1-41d4-aed2-f96cac3f17d5}, !- Handle
  Node 1,                                 !- Name
  {a43b324a-e4d6-4edb-bbaf-e77bdcddca09}, !- Inlet Port
  ;                                       !- Outlet Port

OS:Connection,
  {a43b324a-e4d6-4edb-bbaf-e77bdcddca09}, !- Handle
  {c2358aa6-959b-4af5-91f9-6e0c316e75c7}, !- Source Object
  11,                                     !- Outlet Port
  {66eaef06-17f1-41d4-aed2-f96cac3f17d5}, !- Target Object
  2;                                      !- Inlet Port

OS:PortList,
  {5de0f732-d6e9-4c26-a746-9f65fa74eec5}, !- Handle
  {c2358aa6-959b-4af5-91f9-6e0c316e75c7}, !- HVAC Component
  {3499ac87-4267-432f-8419-3bd0f883376f}; !- Port 1

OS:PortList,
  {46d855e0-64be-4828-8cfb-7b28404ab57e}, !- Handle
  {c2358aa6-959b-4af5-91f9-6e0c316e75c7}; !- HVAC Component

OS:PortList,
  {4b152349-43dd-40b3-819c-87aeaae26a28}, !- Handle
  {c2358aa6-959b-4af5-91f9-6e0c316e75c7}, !- HVAC Component
  {e90b5623-de5d-48d4-b0f3-8d5422ec761d}; !- Port 1

OS:Sizing:Zone,
  {c82d5a8d-1d37-40d0-926b-b12a4555cf4f}, !- Handle
  {c2358aa6-959b-4af5-91f9-6e0c316e75c7}, !- Zone or ZoneList Name
  SupplyAirTemperature,                   !- Zone Cooling Design Supply Air Temperature Input Method
  14,                                     !- Zone Cooling Design Supply Air Temperature {C}
  11.11,                                  !- Zone Cooling Design Supply Air Temperature Difference {deltaC}
  SupplyAirTemperature,                   !- Zone Heating Design Supply Air Temperature Input Method
  40,                                     !- Zone Heating Design Supply Air Temperature {C}
  11.11,                                  !- Zone Heating Design Supply Air Temperature Difference {deltaC}
  0.0085,                                 !- Zone Cooling Design Supply Air Humidity Ratio {kg-H2O/kg-air}
  0.008,                                  !- Zone Heating Design Supply Air Humidity Ratio {kg-H2O/kg-air}
  ,                                       !- Zone Heating Sizing Factor
  ,                                       !- Zone Cooling Sizing Factor
  DesignDay,                              !- Cooling Design Air Flow Method
  ,                                       !- Cooling Design Air Flow Rate {m3/s}
  ,                                       !- Cooling Minimum Air Flow per Zone Floor Area {m3/s-m2}
  ,                                       !- Cooling Minimum Air Flow {m3/s}
  ,                                       !- Cooling Minimum Air Flow Fraction
  DesignDay,                              !- Heating Design Air Flow Method
  ,                                       !- Heating Design Air Flow Rate {m3/s}
  ,                                       !- Heating Maximum Air Flow per Zone Floor Area {m3/s-m2}
  ,                                       !- Heating Maximum Air Flow {m3/s}
  ,                                       !- Heating Maximum Air Flow Fraction
  No,                                     !- Account for Dedicated Outdoor Air System
  NeutralSupplyAir,                       !- Dedicated Outdoor Air System Control Strategy
  autosize,                               !- Dedicated Outdoor Air Low Setpoint Temperature for Design {C}
  autosize,                               !- Dedicated Outdoor Air High Setpoint Temperature for Design {C}
  Sensible Load Only No Latent Load,      !- Zone Load Sizing Method
  HumidityRatioDifference,                !- Zone Latent Cooling Design Supply Air Humidity Ratio Input Method
  ,                                       !- Zone Dehumidification Design Supply Air Humidity Ratio {kgWater/kgDryAir}
  0.005,                                  !- Zone Cooling Design Supply Air Humidity Ratio Difference {kgWater/kgDryAir}
  HumidityRatioDifference,                !- Zone Latent Heating Design Supply Air Humidity Ratio Input Method
  ,                                       !- Zone Humidification Design Supply Air Humidity Ratio {kgWater/kgDryAir}
  0.005,                                  !- Zone Humidification Design Supply Air Humidity Ratio Difference {kgWater/kgDryAir}
  ,                                       !- Zone Humidistat Dehumidification Set Point Schedule Name
  ,                                       !- Zone Humidistat Humidification Set Point Schedule Name
  ,                                       !- Design Zone Air Distribution Effectiveness in Cooling Mode
  ,                                       !- Design Zone Air Distribution Effectiveness in Heating Mode
  ,                                       !- Design Zone Secondary Recirculation Fraction {dimensionless}
  ,                                       !- Design Minimum Zone Ventilation Efficiency {dimensionless}
  Coincident;                             !- Sizing Option

OS:ZoneHVAC:EquipmentList,
  {264f7e1e-1db1-43ae-850a-5059d8d0a234}, !- Handle
  Zone HVAC Equipment List 1,             !- Name
  {c2358aa6-959b-4af5-91f9-6e0c316e75c7}, !- Thermal Zone
  ,                                       !- Load Distribution Scheme
  {f4d37753-6798-4596-bd45-90f30e1e1897}, !- Zone Equipment 1
  1,                                      !- Zone Equipment Cooling Sequence 1
  1,                                      !- Zone Equipment Heating or No-Load Sequence 1
  {082b6778-a32b-45ad-8e22-a2e87e9e0452}, !- Zone Equipment Sequential Cooling Fraction Schedule Name 1
  {f8829c18-66d9-435c-87ac-83e87bbf66ea}; !- Zone Equipment Sequential Heating Fraction Schedule Name 1

OS:AdditionalProperties,
  {9d3b0726-2af0-44f8-9826-043313b9893b}, !- Handle
  {c2358aa6-959b-4af5-91f9-6e0c316e75c7}, !- Object Name
  ObjectType,                             !- Feature Name 1
  String,                                 !- Feature Data Type 1
  conditioned space;                      !- Feature Value 1

OS:Space,
  {68844b45-94ea-4cab-82d9-bfe06b4b7aee}, !- Handle
  conditioned space 1,                    !- Name
  ,                                       !- Space Type Name
  ,                                       !- Default Construction Set Name
  ,                                       !- Default Schedule Set Name
  ,                                       !- Direction of Relative North {deg}
  ,                                       !- X Origin {m}
  ,                                       !- Y Origin {m}
  ,                                       !- Z Origin {m}
  ,                                       !- Building Story Name
  {c2358aa6-959b-4af5-91f9-6e0c316e75c7}, !- Thermal Zone Name
  ,                                       !- Part of Total Floor Area
  ,                                       !- Design Specification Outdoor Air Object Name
  ,                                       !- Building Unit Name
  692.06373070848;                        !- Volume {m3}

OS:Schedule:Ruleset,
  {175803d3-7c02-42fd-a4da-228bfc414c00}, !- Handle
  heating setpoint,                       !- Name
  {aeeb82f9-b948-41e5-bdb2-dc3e06abec60}, !- Schedule Type Limits Name
  {e3bf6afe-33f6-4cbd-aaf3-d1f27134dbbd}; !- Default Day Schedule Name

OS:Schedule:Day,
  {e3bf6afe-33f6-4cbd-aaf3-d1f27134dbbd}, !- Handle
  heating setpoint default day,           !- Name
  {aeeb82f9-b948-41e5-bdb2-dc3e06abec60}, !- Schedule Type Limits Name
  ,                                       !- Interpolate to Timestep
  24,                                     !- Hour 1
  0,                                      !- Minute 1
  0;                                      !- Value Until Time 1

OS:Schedule:Rule,
  {928d0c73-9790-423d-ba32-522004fe3ae2}, !- Handle
  heating setpoint allday rule,           !- Name
  {175803d3-7c02-42fd-a4da-228bfc414c00}, !- Schedule Ruleset Name
  0,                                      !- Rule Order
  {85bc4f23-2647-45a6-a285-3f9cf6ce8965}, !- Day Schedule Name
  Yes,                                    !- Apply Sunday
  Yes,                                    !- Apply Monday
  Yes,                                    !- Apply Tuesday
  Yes,                                    !- Apply Wednesday
  Yes,                                    !- Apply Thursday
  Yes,                                    !- Apply Friday
  Yes,                                    !- Apply Saturday
  DateRange,                              !- Date Specification Type
  1,                                      !- Start Month
  1,                                      !- Start Day
  12,                                     !- End Month
  31;                                     !- End Day

OS:Schedule:Day,
  {85bc4f23-2647-45a6-a285-3f9cf6ce8965}, !- Handle
  heating setpoint day,                   !- Name
  {aeeb82f9-b948-41e5-bdb2-dc3e06abec60}, !- Schedule Type Limits Name
  ,                                       !- Interpolate to Timestep
  24,                                     !- Hour 1
  0,                                      !- Minute 1
  20;                                     !- Value Until Time 1

OS:Schedule:Ruleset,
  {825c8db8-1cfd-4c22-bd74-53a0ccb53c81}, !- Handle
  cooling setpoint,                       !- Name
  {aeeb82f9-b948-41e5-bdb2-dc3e06abec60}, !- Schedule Type Limits Name
  {2fe29aa5-ec99-43ac-9b13-e0961c2866c4}; !- Default Day Schedule Name

OS:Schedule:Day,
  {2fe29aa5-ec99-43ac-9b13-e0961c2866c4}, !- Handle
  cooling setpoint default day,           !- Name
  {aeeb82f9-b948-41e5-bdb2-dc3e06abec60}, !- Schedule Type Limits Name
  ,                                       !- Interpolate to Timestep
  24,                                     !- Hour 1
  0,                                      !- Minute 1
  0;                                      !- Value Until Time 1

OS:Schedule:Rule,
  {fe2643e0-9a1b-4683-8e51-8a6ecf685780}, !- Handle
  cooling setpoint allday rule,           !- Name
  {825c8db8-1cfd-4c22-bd74-53a0ccb53c81}, !- Schedule Ruleset Name
  0,                                      !- Rule Order
  {aa5ccb54-de76-41ef-b1a9-a6b7d42cfa73}, !- Day Schedule Name
  Yes,                                    !- Apply Sunday
  Yes,                                    !- Apply Monday
  Yes,                                    !- Apply Tuesday
  Yes,                                    !- Apply Wednesday
  Yes,                                    !- Apply Thursday
  Yes,                                    !- Apply Friday
  Yes,                                    !- Apply Saturday
  DateRange,                              !- Date Specification Type
  1,                                      !- Start Month
  1,                                      !- Start Day
  12,                                     !- End Month
  31;                                     !- End Day

OS:Schedule:Day,
  {aa5ccb54-de76-41ef-b1a9-a6b7d42cfa73}, !- Handle
  cooling setpoint day,                   !- Name
  {aeeb82f9-b948-41e5-bdb2-dc3e06abec60}, !- Schedule Type Limits Name
  ,                                       !- Interpolate to Timestep
  24,                                     !- Hour 1
  0,                                      !- Minute 1
  25.5555555555556;                       !- Value Until Time 1

OS:ThermostatSetpoint:DualSetpoint,
  {73761ac5-83e2-4609-9888-a2574da66372}, !- Handle
  conditioned space temperature setpoint, !- Name
  {175803d3-7c02-42fd-a4da-228bfc414c00}, !- Heating Setpoint Temperature Schedule Name
  {825c8db8-1cfd-4c22-bd74-53a0ccb53c81}, !- Cooling Setpoint Temperature Schedule Name
  0;                                      !- Temperature Difference Between Cutout And Setpoint {deltaC}

OS:ScheduleTypeLimits,
  {aeeb82f9-b948-41e5-bdb2-dc3e06abec60}, !- Handle
  Temperature,                            !- Name
  ,                                       !- Lower Limit Value
  ,                                       !- Upper Limit Value
  Continuous,                             !- Numeric Type
  Temperature;                            !- Unit Type

OS:Surface,
  {0fbafb62-9773-4315-8dbd-67070df3a967}, !- Handle
  Roof1,                                  !- Name
  RoofCeiling,                            !- Surface Type
  {dc6c045c-10a9-40db-92e6-62664f167557}, !- Construction Name
  {7d4917d8-88e3-469b-9285-cacaa4157d8b}, !- Space Name
  Outdoors,                               !- Outside Boundary Condition
  ,                                       !- Outside Boundary Condition Object
  SunExposed,                             !- Sun Exposure
  WindExposed,                            !- Wind Exposure
  ,                                       !- View Factor to Ground
  ,                                       !- Number of Vertices
  -26.9347048849634, 58.0557891618865, 2.4384, !- X,Y,Z Vertex 1 {m}
  -26.9347048849634, 46.7895631136661, 8.0715130241102, !- X,Y,Z Vertex 2 {m}
  -14.3386812381136, 46.7895631136661, 8.0715130241102, !- X,Y,Z Vertex 3 {m}
  -14.3386812381136, 58.0557891618865, 2.4384; !- X,Y,Z Vertex 4 {m}

OS:AdditionalProperties,
  {435b479f-25af-4542-9965-6729eb86c0a0}, !- Handle
  {0fbafb62-9773-4315-8dbd-67070df3a967}, !- Object Name
  Length,                                 !- Feature Name 1
  Double,                                 !- Feature Data Type 1
  41.325536899113608,                     !- Feature Value 1
  Width,                                  !- Feature Name 2
  Double,                                 !- Feature Data Type 2
  41.325536899113601,                     !- Feature Value 2
  Azimuth,                                !- Feature Name 3
  Integer,                                !- Feature Data Type 3
  0,                                      !- Feature Value 3
  Tilt,                                   !- Feature Name 4
  Double,                                 !- Feature Data Type 4
  0.5,                                    !- Feature Value 4
  SurfaceType,                            !- Feature Name 5
  String,                                 !- Feature Data Type 5
  Roof;                                   !- Feature Value 5

OS:ThermalZone,
  {7b40cd04-d8b9-422e-9271-43619d738bf9}, !- Handle
  attic - vented,                         !- Name
  1,                                      !- Multiplier
  ,                                       !- Ceiling Height {m}
  356.389957095237,                       !- Volume {m3}
  ,                                       !- Floor Area {m2}
  ,                                       !- Zone Inside Convection Algorithm
  ,                                       !- Zone Outside Convection Algorithm
  ,                                       !- Zone Conditioning Equipment List Name
  {37ed0447-9193-49bb-abdc-e836e30c3567}, !- Zone Air Inlet Port List
  {04f20ad4-e4b1-4c7c-8250-bfc69da72581}, !- Zone Air Exhaust Port List
  {4f2b43cd-349d-42bc-8960-2255a5ac280f}, !- Zone Air Node Name
  {c45ba95d-fb70-489e-b92b-cf8a607c8053}, !- Zone Return Air Port List
  ,                                       !- Primary Daylighting Control Name
  ,                                       !- Fraction of Zone Controlled by Primary Daylighting Control
  ,                                       !- Secondary Daylighting Control Name
  ,                                       !- Fraction of Zone Controlled by Secondary Daylighting Control
  ,                                       !- Illuminance Map Name
  ,                                       !- Group Rendering Name
  ,                                       !- Thermostat Name
  No;                                     !- Use Ideal Air Loads

OS:Node,
  {39772c74-91d3-4aa6-b6b9-dbb84485db19}, !- Handle
  Node 2,                                 !- Name
  {4f2b43cd-349d-42bc-8960-2255a5ac280f}, !- Inlet Port
  ;                                       !- Outlet Port

OS:Connection,
  {4f2b43cd-349d-42bc-8960-2255a5ac280f}, !- Handle
  {7b40cd04-d8b9-422e-9271-43619d738bf9}, !- Source Object
  11,                                     !- Outlet Port
  {39772c74-91d3-4aa6-b6b9-dbb84485db19}, !- Target Object
  2;                                      !- Inlet Port

OS:PortList,
  {37ed0447-9193-49bb-abdc-e836e30c3567}, !- Handle
  {7b40cd04-d8b9-422e-9271-43619d738bf9}; !- HVAC Component

OS:PortList,
  {04f20ad4-e4b1-4c7c-8250-bfc69da72581}, !- Handle
  {7b40cd04-d8b9-422e-9271-43619d738bf9}; !- HVAC Component

OS:PortList,
  {c45ba95d-fb70-489e-b92b-cf8a607c8053}, !- Handle
  {7b40cd04-d8b9-422e-9271-43619d738bf9}; !- HVAC Component

OS:Sizing:Zone,
  {8a44cf5b-b2b5-4c2b-9958-e5ad42425b39}, !- Handle
  {7b40cd04-d8b9-422e-9271-43619d738bf9}, !- Zone or ZoneList Name
  SupplyAirTemperature,                   !- Zone Cooling Design Supply Air Temperature Input Method
  14,                                     !- Zone Cooling Design Supply Air Temperature {C}
  11.11,                                  !- Zone Cooling Design Supply Air Temperature Difference {deltaC}
  SupplyAirTemperature,                   !- Zone Heating Design Supply Air Temperature Input Method
  40,                                     !- Zone Heating Design Supply Air Temperature {C}
  11.11,                                  !- Zone Heating Design Supply Air Temperature Difference {deltaC}
  0.0085,                                 !- Zone Cooling Design Supply Air Humidity Ratio {kg-H2O/kg-air}
  0.008,                                  !- Zone Heating Design Supply Air Humidity Ratio {kg-H2O/kg-air}
  ,                                       !- Zone Heating Sizing Factor
  ,                                       !- Zone Cooling Sizing Factor
  DesignDay,                              !- Cooling Design Air Flow Method
  ,                                       !- Cooling Design Air Flow Rate {m3/s}
  ,                                       !- Cooling Minimum Air Flow per Zone Floor Area {m3/s-m2}
  ,                                       !- Cooling Minimum Air Flow {m3/s}
  ,                                       !- Cooling Minimum Air Flow Fraction
  DesignDay,                              !- Heating Design Air Flow Method
  ,                                       !- Heating Design Air Flow Rate {m3/s}
  ,                                       !- Heating Maximum Air Flow per Zone Floor Area {m3/s-m2}
  ,                                       !- Heating Maximum Air Flow {m3/s}
  ,                                       !- Heating Maximum Air Flow Fraction
  No,                                     !- Account for Dedicated Outdoor Air System
  NeutralSupplyAir,                       !- Dedicated Outdoor Air System Control Strategy
  autosize,                               !- Dedicated Outdoor Air Low Setpoint Temperature for Design {C}
  autosize,                               !- Dedicated Outdoor Air High Setpoint Temperature for Design {C}
  Sensible Load Only No Latent Load,      !- Zone Load Sizing Method
  HumidityRatioDifference,                !- Zone Latent Cooling Design Supply Air Humidity Ratio Input Method
  ,                                       !- Zone Dehumidification Design Supply Air Humidity Ratio {kgWater/kgDryAir}
  0.005,                                  !- Zone Cooling Design Supply Air Humidity Ratio Difference {kgWater/kgDryAir}
  HumidityRatioDifference,                !- Zone Latent Heating Design Supply Air Humidity Ratio Input Method
  ,                                       !- Zone Humidification Design Supply Air Humidity Ratio {kgWater/kgDryAir}
  0.005,                                  !- Zone Humidification Design Supply Air Humidity Ratio Difference {kgWater/kgDryAir}
  ,                                       !- Zone Humidistat Dehumidification Set Point Schedule Name
  ,                                       !- Zone Humidistat Humidification Set Point Schedule Name
  ,                                       !- Design Zone Air Distribution Effectiveness in Cooling Mode
  ,                                       !- Design Zone Air Distribution Effectiveness in Heating Mode
  ,                                       !- Design Zone Secondary Recirculation Fraction {dimensionless}
  ,                                       !- Design Minimum Zone Ventilation Efficiency {dimensionless}
  Coincident;                             !- Sizing Option

OS:ZoneHVAC:EquipmentList,
  {a882854e-b16b-4b1d-96d5-ab90ba7788ea}, !- Handle
  Zone HVAC Equipment List 2,             !- Name
  {7b40cd04-d8b9-422e-9271-43619d738bf9}; !- Thermal Zone

OS:AdditionalProperties,
  {59832f43-7821-4c32-b706-dc4af7e238a5}, !- Handle
  {7b40cd04-d8b9-422e-9271-43619d738bf9}, !- Object Name
  ObjectType,                             !- Feature Name 1
  String,                                 !- Feature Data Type 1
  attic - vented;                         !- Feature Value 1

OS:Space,
  {7d4917d8-88e3-469b-9285-cacaa4157d8b}, !- Handle
  attic - vented 1,                       !- Name
  ,                                       !- Space Type Name
  ,                                       !- Default Construction Set Name
  ,                                       !- Default Schedule Set Name
  ,                                       !- Direction of Relative North {deg}
  ,                                       !- X Origin {m}
  ,                                       !- Y Origin {m}
  ,                                       !- Z Origin {m}
  ,                                       !- Building Story Name
  {7b40cd04-d8b9-422e-9271-43619d738bf9}, !- Thermal Zone Name
  ,                                       !- Part of Total Floor Area
  ,                                       !- Design Specification Outdoor Air Object Name
  ,                                       !- Building Unit Name
  356.389957095237;                       !- Volume {m3}

OS:Material,
  {0b50e9fb-609b-4065-8ff0-63931e6fb058}, !- Handle
  asphalt or fiberglass shingles,         !- Name
  Rough,                                  !- Roughness
  0.00635,                                !- Thickness {m}
  0.162714,                               !- Conductivity {W/m-K}
  1121.4,                                 !- Density {kg/m3}
  1465.45,                                !- Specific Heat {J/kg-K}
  0.9,                                    !- Thermal Absorptance
  0.85,                                   !- Solar Absorptance