
OS:Version,
  {b0c3f06f-ce28-4a68-a4fd-f6dbbf2bb234}, !- Handle
  3.10.0;                                 !- Version Identifier

OS:SimulationControl,
  {4d8894e0-7e3b-4a62-b74a-1a87608c086a}, !- Handle
  ,                                       !- Do Zone Sizing Calculation
  ,                                       !- Do System Sizing Calculation
  ,                                       !- Do Plant Sizing Calculation
  No;                                     !- Run Simulation for Sizing Periods

OS:Timestep,
  {001b8e47-d673-4b12-bc6d-aecb7dd7409e}, !- Handle
  1;                                      !- Number of Timesteps per Hour

OS:ShadowCalculation,
  {ab56c036-e032-438f-8421-52350b5e0687}, !- Handle
  PolygonClipping,                        !- Shading Calculation Method
  ,                                       !- Shading Calculation Update Frequency Method
  20,                                     !- Shading Calculation Update Frequency
  200,                                    !- Maximum Figures in Shadow Overlap Calculations
  ,                                       !- Polygon Clipping Algorithm
  512,                                    !- Pixel Counting Resolution
  ,                                       !- Sky Diffuse Modeling Algorithm
  No,                                     !- Output External Shading Calculation Results
  No,                                     !- Disable Self-Shading Within Shading Zone Groups
  No;                                     !- Disable Self-Shading From Shading Zone Groups to Other Zones

OS:SurfaceConvectionAlgorithm:Outside,
  {991b3c24-f5ce-4327-b12f-2206fa4c261e}, !- Handle
  DOE-2;                                  !- Algorithm

OS:SurfaceConvectionAlgorithm:Inside,
  {ae8ea864-ad7a-421f-b12d-ed0f638f92e4}, !- Handle
  TARP;                                   !- Algorithm

OS:ZoneCapacitanceMultiplier:ResearchSpecial,
  {c8e1b673-1515-493c-8579-a598ae2afd71}, !- Handle
  7,                                      !- Temperature Capacity Multiplier
  15,                                     !- Humidity Capacity Multiplier
  ;                                       !- Carbon Dioxide Capacity Multiplier

OS:ConvergenceLimits,
  {8a924b27-5f53-4635-abad-77aefeae0b48}, !- Handle
  0;                                      !- Minimum System Timestep {minutes}

OS:RunPeriod,
  {dc75cdeb-563f-4a74-8b65-81268c2bea0c}, !- Handle
  Run Period 1,                           !- Name
  1,                                      !- Begin Month
  1,                                      !- Begin Day of Month
  12,                                     !- End Month
  31,                                     !- End Day of Month
  ,                                       !- Use Weather File Holidays and Special Days
  ,                                       !- Use Weather File Daylight Saving Period
  ,                                       !- Apply Weekend Holiday Rule
  ,                                       !- Use Weather File Rain Indicators
  ,                                       !- Use Weather File Snow Indicators
  ;                                       !- Number of Times Runperiod to be Repeated

OS:PerformancePrecisionTradeoffs,
  {fc28fd91-bb51-4e1e-9a95-3a68ef54ecf3}, !- Handle
  ,                                       !- Use Coil Direct Solutions
  CarrollMRT;                             !- Zone Radiant Exchange Algorithm

OS:WeatherFile,
  {4023c8ac-3160-4d29-83a3-b06d9423275b}, !- Handle
  Buffalo Niagara Intl Ap,                !- City
  NY,                                     !- State Province Region
  USA,                                    !- Country
  TMY3,                                   !- Data Source
  725280,                                 !- WMO Number
  42.93,                                  !- Latitude {deg}
  -78.73,                                 !- Longitude {deg}
  -5,                                     !- Time Zone {hr}
  215,                                    !- Elevation {m}
  /Users/nmoore/github/urbanopt-example-geojson-project/example_project/weather/USA_NY_Buffalo-Greater.Buffalo.Intl.AP.725280_TMY3.epw, !- Url
  6B50E0FF,                               !- Checksum
  ,                                       !- Start Date Actual Year
  Sunday;                                 !- Start Day of Week

OS:YearDescription,
  {c9d842ea-54ac-447b-8d11-1ac9455f3a0f}, !- Handle
  2007,                                   !- Calendar Year
  ,                                       !- Day of Week for Start Day
  ;                                       !- Is Leap Year

OS:Site,
  {7ed4e122-fc1e-4cfa-bafd-1009e87f455f}, !- Handle
  Buffalo Niagara Intl Ap_NY,             !- Name
  42.93,                                  !- Latitude {deg}
  -78.73,                                 !- Longitude {deg}
  -5,                                     !- Time Zone {hr}
  215,                                    !- Elevation {m}
  Suburbs,                                !- Terrain
  Yes;                                    !- Keep Site Location Information

OS:RunPeriodControl:DaylightSavingTime,
  {0c70acc3-2320-41f1-97e3-fea02dc51ef6}, !- Handle
  Mar 12,                                 !- Start Date
  Nov 5;                                  !- End Date

OS:Site:GroundTemperature:Shallow,
  {ecbea896-9ea1-4b5b-9e6b-9401027f743c}, !- Handle
  4.30207395723828,                       !- January Surface Ground Temperature {C}
  2.29327249652502,                       !- February Surface Ground Temperature {C}
  2.13240047156047,                       !- March Surface Ground Temperature {C}
  3.08567940719286,                       !- April Surface Ground Temperature {C}
  6.91256312497526,                       !- May Surface Ground Temperature {C}
  10.7216195949507,                       !- June Surface Ground Temperature {C}
  14.0238679822574,                       !- July Surface Ground Temperature {C}
  16.1157611184724,                       !- August Surface Ground Temperature {C}
  16.2934789303462,                       !- September Surface Ground Temperature {C}
  14.5920754632847,                       !- October Surface Ground Temperature {C}
  11.374036348653,                        !- November Surface Ground Temperature {C}
  7.68182621661674;                       !- December Surface Ground Temperature {C}

OS:ThermalZone,
  {8df9c0da-86f1-45e6-a7b7-fa171bcf261b}, !- Handle
  conditioned space,                      !- Name
  1,                                      !- Multiplier
  ,                                       !- Ceiling Height {m}
  692.06373070848,                        !- Volume {m3}
  ,                                       !- Floor Area {m2}
  ,                                       !- Zone Inside Convection Algorithm
  ,                                       !- Zone Outside Convection Algorithm
  ,                                       !- Zone Conditioning Equipment List Name
  {02de844d-06a3-43d4-9d10-0bca0c0c1612}, !- Zone Air Inlet Port List
  {50fa1bd2-0bf3-401e-aea5-1810221823ab}, !- Zone Air Exhaust Port List
  {2be25ed0-7855-417f-ab32-f5551edc3241}, !- Zone Air Node Name
  {25a2a3ed-2df5-4c92-8e26-f62ba648bb29}, !- Zone Return Air Port List
  ,                                       !- Primary Daylighting Control Name
  ,                                       !- Fraction of Zone Controlled by Primary Daylighting Control
  ,                                       !- Secondary Daylighting Control Name
  ,                                       !- Fraction of Zone Controlled by Secondary Daylighting Control
  ,                                       !- Illuminance Map Name
  ,                                       !- Group Rendering Name
  {177ab0bd-7e57-4165-b039-9258aa348443}, !- Thermostat Name
  No;                                     !- Use Ideal Air Loads

OS:Node,
  {39275b9d-18e8-4802-9b22-8001a0aff55c}, !- Handle
  Node 1,                                 !- Name
  {2be25ed0-7855-417f-ab32-f5551edc3241}, !- Inlet Port
  ;                                       !- Outlet Port

OS:Connection,
  {2be25ed0-7855-417f-ab32-f5551edc3241}, !- Handle
  {8df9c0da-86f1-45e6-a7b7-fa171bcf261b}, !- Source Object
  11,                                     !- Outlet Port
  {39275b9d-18e8-4802-9b22-8001a0aff55c}, !- Target Object
  2;                                      !- Inlet Port

OS:PortList,
  {02de844d-06a3-43d4-9d10-0bca0c0c1612}, !- Handle
  {8df9c0da-86f1-45e6-a7b7-fa171bcf261b}, !- HVAC Component
  {e06cf529-8f81-497b-9c9f-c4386ece3da6}; !- Port 1

OS:PortList,
  {50fa1bd2-0bf3-401e-aea5-1810221823ab}, !- Handle
  {8df9c0da-86f1-45e6-a7b7-fa171bcf261b}; !- HVAC Component

OS:PortList,
  {25a2a3ed-2df5-4c92-8e26-f62ba648bb29}, !- Handle
  {8df9c0da-86f1-45e6-a7b7-fa171bcf261b}, !- HVAC Component
  {86ca8ccb-3f25-45e0-a211-4017d329f4f0}; !- Port 1

OS:Sizing:Zone,
  {6842fec3-4280-42b9-a641-088500ee8123}, !- Handle
  {8df9c0da-86f1-45e6-a7b7-fa171bcf261b}, !- Zone or ZoneList Name
  SupplyAirTemperature,                   !- Zone Cooling Design Supply Air Temperature Input Method
  14,                                     !- Zone Cooling Design Supply Air Temperature {C}
  11.11,                                  !- Zone Cooling Design Supply Air Temperature Difference {deltaC}
  SupplyAirTemperature,                   !- Zone Heating Design Supply Air Temperature Input Method
  40,                                     !- Zone Heating Design Supply Air Temperature {C}
  11.11,                                  !- Zone Heating Design Supply Air Temperature Difference {deltaC}
  0.0085,                                 !- Zone Cooling Design Supply Air Humidity Ratio {kg-H2O/kg-air}
  0.008,                                  !- Zone Heating Design Supply Air Humidity Ratio {kg-H2O/kg-air}
  ,                                       !- Zone Heating Sizing Factor
  ,                                       !- Zone Cooling Sizing Factor
  DesignDay,                              !- Cooling Design Air Flow Method
  ,                                       !- Cooling Design Air Flow Rate {m3/s}
  ,                                       !- Cooling Minimum Air Flow per Zone Floor Area {m3/s-m2}
  ,                                       !- Cooling Minimum Air Flow {m3/s}
  ,                                       !- Cooling Minimum Air Flow Fraction
  DesignDay,                              !- Heating Design Air Flow Method
  ,                                       !- Heating Design Air Flow Rate {m3/s}
  ,                                       !- Heating Maximum Air Flow per Zone Floor Area {m3/s-m2}
  ,                                       !- Heating Maximum Air Flow {m3/s}
  ,                                       !- Heating Maximum Air Flow Fraction
  No,                                     !- Account for Dedicated Outdoor Air System
  NeutralSupplyAir,                       !- Dedicated Outdoor Air System Control Strategy
  autosize,                               !- Dedicated Outdoor Air Low Setpoint Temperature for Design {C}
  autosize,                               !- Dedicated Outdoor Air High Setpoint Temperature for Design {C}
  Sensible Load Only No Latent Load,      !- Zone Load Sizing Method
  HumidityRatioDifference,                !- Zone Latent Cooling Design Supply Air Humidity Ratio Input Method
  ,                                       !- Zone Dehumidification Design Supply Air Humidity Ratio {kgWater/kgDryAir}
  0.005,                                  !- Zone Cooling Design Supply Air Humidity Ratio Difference {kgWater/kgDryAir}
  HumidityRatioDifference,                !- Zone Latent Heating Design Supply Air Humidity Ratio Input Method
  ,                                       !- Zone Humidification Design Supply Air Humidity Ratio {kgWater/kgDryAir}
  0.005,                                  !- Zone Humidification Design Supply Air Humidity Ratio Difference {kgWater/kgDryAir}
  ,                                       !- Zone Humidistat Dehumidification Set Point Schedule Name
  ,                                       !- Zone Humidistat Humidification Set Point Schedule Name
  ,                                       !- Design Zone Air Distribution Effectiveness in Cooling Mode
  ,                                       !- Design Zone Air Distribution Effectiveness in Heating Mode
  ,                                       !- Design Zone Secondary Recirculation Fraction {dimensionless}
  ,                                       !- Design Minimum Zone Ventilation Efficiency {dimensionless}
  Coincident;                             !- Sizing Option

OS:ZoneHVAC:EquipmentList,
  {976e11bc-7c87-436a-bd47-b4f414288f02}, !- Handle
  Zone HVAC Equipment List 1,             !- Name
  {8df9c0da-86f1-45e6-a7b7-fa171bcf261b}, !- Thermal Zone
  ,                                       !- Load Distribution Scheme
  {bc3ef846-ba5f-4591-af8f-7f9a8b05f5ff}, !- Zone Equipment 1
  1,                                      !- Zone Equipment Cooling Sequence 1
  1,                                      !- Zone Equipment Heating or No-Load Sequence 1
  {18a5335c-175d-451b-8d66-5036cab4deec}, !- Zone Equipment Sequential Cooling Fraction Schedule Name 1
  {4cb747b7-8185-4453-8e3f-0e09496bba7f}; !- Zone Equipment Sequential Heating Fraction Schedule Name 1

OS:AdditionalProperties,
  {aa0b8043-e2b6-4368-9207-399171cfb160}, !- Handle
  {8df9c0da-86f1-45e6-a7b7-fa171bcf261b}, !- Object Name
  ObjectType,                             !- Feature Name 1
  String,                                 !- Feature Data Type 1
  conditioned space;                      !- Feature Value 1

OS:Space,
  {a80cb65c-6be3-4a57-8f5a-8d49be226847}, !- Handle
  conditioned space 1,                    !- Name
  ,                                       !- Space Type Name
  ,                                       !- Default Construction Set Name
  ,                                       !- Default Schedule Set Name
  ,                                       !- Direction of Relative North {deg}
  ,                                       !- X Origin {m}
  ,                                       !- Y Origin {m}
  ,                                       !- Z Origin {m}
  ,                                       !- Building Story Name
  {8df9c0da-86f1-45e6-a7b7-fa171bcf261b}, !- Thermal Zone Name
  ,                                       !- Part of Total Floor Area
  ,                                       !- Design Specification Outdoor Air Object Name
  ,                                       !- Building Unit Name
  692.06373070848;                        !- Volume {m3}

OS:Schedule:Ruleset,
  {84267410-fd36-4da7-895a-66fe43d5d19e}, !- Handle
  heating setpoint,                       !- Name
  {c6024366-7fa0-47ab-a53e-1c83772cee62}, !- Schedule Type Limits Name
  {64830c53-9d70-4911-999b-f9df49eb9e0a}; !- Default Day Schedule Name

OS:Schedule:Day,
  {64830c53-9d70-4911-999b-f9df49eb9e0a}, !- Handle
  heating setpoint default day,           !- Name
  {c6024366-7fa0-47ab-a53e-1c83772cee62}, !- Schedule Type Limits Name
  ,                                       !- Interpolate to Timestep
  24,                                     !- Hour 1
  0,                                      !- Minute 1
  0;                                      !- Value Until Time 1

OS:Schedule:Rule,
  {2ffd5158-5270-47cb-987a-429b9b40c9e4}, !- Handle
  heating setpoint allday rule,           !- Name
  {84267410-fd36-4da7-895a-66fe43d5d19e}, !- Schedule Ruleset Name
  0,                                      !- Rule Order
  {bd1d80e2-98bc-4e1a-b461-539785822ac2}, !- Day Schedule Name
  Yes,                                    !- Apply Sunday
  Yes,                                    !- Apply Monday
  Yes,                                    !- Apply Tuesday
  Yes,                                    !- Apply Wednesday
  Yes,                                    !- Apply Thursday
  Yes,                                    !- Apply Friday
  Yes,                                    !- Apply Saturday
  DateRange,                              !- Date Specification Type
  1,                                      !- Start Month
  1,                                      !- Start Day
  12,                                     !- End Month
  31;                                     !- End Day

OS:Schedule:Day,
  {bd1d80e2-98bc-4e1a-b461-539785822ac2}, !- Handle
  heating setpoint day,                   !- Name
  {c6024366-7fa0-47ab-a53e-1c83772cee62}, !- Schedule Type Limits Name
  ,                                       !- Interpolate to Timestep
  24,                                     !- Hour 1
  0,                                      !- Minute 1
  20;                                     !- Value Until Time 1

OS:Schedule:Ruleset,
  {15e69bdc-4408-453d-93b7-d632f2a433b2}, !- Handle
  cooling setpoint,                       !- Name
  {c6024366-7fa0-47ab-a53e-1c83772cee62}, !- Schedule Type Limits Name
  {32c7d237-b8f9-475c-9f74-5cec974c69ce}; !- Default Day Schedule Name

OS:Schedule:Day,
  {32c7d237-b8f9-475c-9f74-5cec974c69ce}, !- Handle
  cooling setpoint default day,           !- Name
  {c6024366-7fa0-47ab-a53e-1c83772cee62}, !- Schedule Type Limits Name
  ,                                       !- Interpolate to Timestep
  24,                                     !- Hour 1
  0,                                      !- Minute 1
  0;                                      !- Value Until Time 1

OS:Schedule:Rule,
  {c33d8ec5-2101-462e-b971-1ac8c0d89b15}, !- Handle
  cooling setpoint allday rule,           !- Name
  {15e69bdc-4408-453d-93b7-d632f2a433b2}, !- Schedule Ruleset Name
  0,                                      !- Rule Order
  {a9110b6e-bc58-4776-a486-a990d80ceccd}, !- Day Schedule Name
  Yes,                                    !- Apply Sunday
  Yes,                                    !- Apply Monday
  Yes,                                    !- Apply Tuesday
  Yes,                                    !- Apply Wednesday
  Yes,                                    !- Apply Thursday
  Yes,                                    !- Apply Friday
  Yes,                                    !- Apply Saturday
  DateRange,                              !- Date Specification Type
  1,                                      !- Start Month
  1,                                      !- Start Day
  12,                                     !- End Month
  31;                                     !- End Day

OS:Schedule:Day,
  {a9110b6e-bc58-4776-a486-a990d80ceccd}, !- Handle
  cooling setpoint day,                   !- Name
  {c6024366-7fa0-47ab-a53e-1c83772cee62}, !- Schedule Type Limits Name
  ,                                       !- Interpolate to Timestep
  24,                                     !- Hour 1
  0,                                      !- Minute 1
  25.5555555555556;                       !- Value Until Time 1

OS:ThermostatSetpoint:DualSetpoint,
  {177ab0bd-7e57-4165-b039-9258aa348443}, !- Handle
  conditioned space temperature setpoint, !- Name
  {84267410-fd36-4da7-895a-66fe43d5d19e}, !- Heating Setpoint Temperature Schedule Name
  {15e69bdc-4408-453d-93b7-d632f2a433b2}, !- Cooling Setpoint Temperature Schedule Name
  0;                                      !- Temperature Difference Between Cutout And Setpoint {deltaC}

OS:ScheduleTypeLimits,
  {c6024366-7fa0-47ab-a53e-1c83772cee62}, !- Handle
  Temperature,                            !- Name
  ,                                       !- Lower Limit Value
  ,                                       !- Upper Limit Value
  Continuous,                             !- Numeric Type
  Temperature;                            !- Unit Type

OS:Surface,
  {3deb81c2-2228-4fb7-ba47-495c3bfffa87}, !- Handle
  Roof1,                                  !- Name
  RoofCeiling,                            !- Surface Type
  {82dd9232-037a-4fb6-b2d2-e03f3afa29ec}, !- Construction Name
  {9ae41ca1-b4bd-4e01-9db9-864d2c9030a7}, !- Space Name
  Outdoors,                               !- Outside Boundary Condition
  ,                                       !- Outside Boundary Condition Object
  SunExposed,                             !- Sun Exposure
  WindExposed,                            !- Wind Exposure
  ,                                       !- View Factor to Ground
  ,                                       !- Number of Vertices
  -26.9347048849634, 58.0557891618865, 2.4384, !- X,Y,Z Vertex 1 {m}
  -26.9347048849634, 46.7895631136661, 8.0715130241102, !- X,Y,Z Vertex 2 {m}
  -14.3386812381136, 46.7895631136661, 8.0715130241102, !- X,Y,Z Vertex 3 {m}
  -14.3386812381136, 58.0557891618865, 2.4384; !- X,Y,Z Vertex 4 {m}

OS:AdditionalProperties,
  {5e89f0c8-8507-4f77-afde-59133a72c8df}, !- Handle
  {3deb81c2-2228-4fb7-ba47-495c3bfffa87}, !- Object Name
  Length,                                 !- Feature Name 1
  Double,                                 !- Feature Data Type 1
  41.325536899113608,                     !- Feature Value 1
  Width,                                  !- Feature Name 2
  Double,                                 !- Feature Data Type 2
  41.325536899113601,                     !- Feature Value 2
  Azimuth,                                !- Feature Name 3
  Integer,                                !- Feature Data Type 3
  0,                                      !- Feature Value 3
  Tilt,                                   !- Feature Name 4
  Double,                                 !- Feature Data Type 4
  0.5,                                    !- Feature Value 4
  SurfaceType,                            !- Feature Name 5
  String,                                 !- Feature Data Type 5
  Roof;                                   !- Feature Value 5

OS:ThermalZone,
  {843b76b3-b43d-4bd9-b560-e022b349895d}, !- Handle
  attic - vented,                         !- Name
  1,                                      !- Multiplier
  ,                                       !- Ceiling Height {m}
  356.390921899745,                       !- Volume {m3}
  ,                                       !- Floor Area {m2}
  ,                                       !- Zone Inside Convection Algorithm
  ,                                       !- Zone Outside Convection Algorithm
  ,                                       !- Zone Conditioning Equipment List Name
  {703b766f-b7c1-42e2-893c-aa7e62289f24}, !- Zone Air Inlet Port List
  {e5b8c7b1-7fa5-4177-8017-6e143b63b0ae}, !- Zone Air Exhaust Port List
  {2a30c294-5bbe-449e-b777-dd70e3a3c54c}, !- Zone Air Node Name
  {d19144c6-fc78-403a-a774-986928dd8ec3}, !- Zone Return Air Port List
  ,                                       !- Primary Daylighting Control Name
  ,                                       !- Fraction of Zone Controlled by Primary Daylighting Control
  ,                                       !- Secondary Daylighting Control Name
  ,                                       !- Fraction of Zone Controlled by Secondary Daylighting Control
  ,                                       !- Illuminance Map Name
  ,                                       !- Group Rendering Name
  ,                                       !- Thermostat Name
  No;                                     !- Use Ideal Air Loads

OS:Node,
  {c1a85b61-ac09-4a57-8967-aa4423c067bb}, !- Handle
  Node 2,                                 !- Name
  {2a30c294-5bbe-449e-b777-dd70e3a3c54c}, !- Inlet Port
  ;                                       !- Outlet Port

OS:Connection,
  {2a30c294-5bbe-449e-b777-dd70e3a3c54c}, !- Handle
  {843b76b3-b43d-4bd9-b560-e022b349895d}, !- Source Object
  11,                                     !- Outlet Port
  {c1a85b61-ac09-4a57-8967-aa4423c067bb}, !- Target Object
  2;                                      !- Inlet Port

OS:PortList,
  {703b766f-b7c1-42e2-893c-aa7e62289f24}, !- Handle
  {843b76b3-b43d-4bd9-b560-e022b349895d}; !- HVAC Component

OS:PortList,
  {e5b8c7b1-7fa5-4177-8017-6e143b63b0ae}, !- Handle
  {843b76b3-b43d-4bd9-b560-e022b349895d}; !- HVAC Component

OS:PortList,
  {d19144c6-fc78-403a-a774-986928dd8ec3}, !- Handle
  {843b76b3-b43d-4bd9-b560-e022b349895d}; !- HVAC Component

OS:Sizing:Zone,
  {494b9aaa-87bf-4fbd-8ad6-6df1a6067d30}, !- Handle
  {843b76b3-b43d-4bd9-b560-e022b349895d}, !- Zone or ZoneList Name
  SupplyAirTemperature,                   !- Zone Cooling Design Supply Air Temperature Input Method
  14,                                     !- Zone Cooling Design Supply Air Temperature {C}
  11.11,                                  !- Zone Cooling Design Supply Air Temperature Difference {deltaC}
  SupplyAirTemperature,                   !- Zone Heating Design Supply Air Temperature Input Method
  40,                                     !- Zone Heating Design Supply Air Temperature {C}
  11.11,                                  !- Zone Heating Design Supply Air Temperature Difference {deltaC}
  0.0085,                                 !- Zone Cooling Design Supply Air Humidity Ratio {kg-H2O/kg-air}
  0.008,                                  !- Zone Heating Design Supply Air Humidity Ratio {kg-H2O/kg-air}
  ,                                       !- Zone Heating Sizing Factor
  ,                                       !- Zone Cooling Sizing Factor
  DesignDay,                              !- Cooling Design Air Flow Method
  ,                                       !- Cooling Design Air Flow Rate {m3/s}
  ,                                       !- Cooling Minimum Air Flow per Zone Floor Area {m3/s-m2}
  ,                                       !- Cooling Minimum Air Flow {m3/s}
  ,                                       !- Cooling Minimum Air Flow Fraction
  DesignDay,                              !- Heating Design Air Flow Method
  ,                                       !- Heating Design Air Flow Rate {m3/s}
  ,                                       !- Heating Maximum Air Flow per Zone Floor Area {m3/s-m2}
  ,                                       !- Heating Maximum Air Flow {m3/s}
  ,                                       !- Heating Maximum Air Flow Fraction
  No,                                     !- Account for Dedicated Outdoor Air System
  NeutralSupplyAir,                       !- Dedicated Outdoor Air System Control Strategy
  autosize,                               !- Dedicated Outdoor Air Low Setpoint Temperature for Design {C}
  autosize,                               !- Dedicated Outdoor Air High Setpoint Temperature for Design {C}
  Sensible Load Only No Latent Load,      !- Zone Load Sizing Method
  HumidityRatioDifference,                !- Zone Latent Cooling Design Supply Air Humidity Ratio Input Method
  ,                                       !- Zone Dehumidification Design Supply Air Humidity Ratio {kgWater/kgDryAir}
  0.005,                                  !- Zone Cooling Design Supply Air Humidity Ratio Difference {kgWater/kgDryAir}
  HumidityRatioDifference,                !- Zone Latent Heating Design Supply Air Humidity Ratio Input Method
  ,                                       !- Zone Humidification Design Supply Air Humidity Ratio {kgWater/kgDryAir}
  0.005,                                  !- Zone Humidification Design Supply Air Humidity Ratio Difference {kgWater/kgDryAir}
  ,                                       !- Zone Humidistat Dehumidification Set Point Schedule Name
  ,                                       !- Zone Humidistat Humidification Set Point Schedule Name
  ,                                       !- Design Zone Air Distribution Effectiveness in Cooling Mode
  ,                                       !- Design Zone Air Distribution Effectiveness in Heating Mode
  ,                                       !- Design Zone Secondary Recirculation Fraction {dimensionless}
  ,                                       !- Design Minimum Zone Ventilation Efficiency {dimensionless}
  Coincident;                             !- Sizing Option

OS:ZoneHVAC:EquipmentList,
  {26e1f900-c72f-45df-b68d-abeafa7af3ff}, !- Handle
  Zone HVAC Equipment List 2,             !- Name
  {843b76b3-b43d-4bd9-b560-e022b349895d}; !- Thermal Zone

OS:AdditionalProperties,
  {0727e218-4c0e-4233-81e3-4b168103b36a}, !- Handle
  {843b76b3-b43d-4bd9-b560-e022b349895d}, !- Object Name
  ObjectType,                             !- Feature Name 1
  String,                                 !- Feature Data Type 1
  attic - vented;                         !- Feature Value 1

OS:Space,
  {9ae41ca1-b4bd-4e01-9db9-864d2c9030a7}, !- Handle
  attic - vented 1,                       !- Name
  ,                                       !- Space Type Name
  ,                                       !- Default Construction Set Name
  ,                                       !- Default Schedule Set Name
  ,                                       !- Direction of Relative North {deg}
  ,                                       !- X Origin {m}
  ,                                       !- Y Origin {m}
  ,                                       !- Z Origin {m}
  ,                                       !- Building Story Name
  {843b76b3-b43d-4bd9-b560-e022b349895d}, !- Thermal Zone Name
  ,                                       !- Part of Total Floor Area
  ,                                       !- Design Specification Outdoor Air Object Name
  ,                                       !- Building Unit Name
  356.390921899745;                       !- Volume {m3}

OS:Material,
  {dfdef851-b5e5-46e9-a0c1-4234080becf4}, !- Handle
  asphalt or fiberglass shingles,         !- Name
  Rough,                                  !- Roughness
  0.00635,                                !- Thickness {m}
  0.162714,                               !- Conductivity {W/m-K}
  1121.4,                                 !- Density {kg/m3}
  1465.45,                                !- Specific Heat {J/kg-K}
  0.9,                                    !- Thermal Absorptance
  0.85,                                   !- Solar Absorptance