
OS:Version,
  {bc114971-8fc3-4aa9-a816-e89884d87b36}, !- Handle
  3.9.0;                                  !- Version Identifier

OS:SimulationControl,
  {572d72cd-aa2b-4991-b7f5-54318f88f49d}, !- Handle
  ,                                       !- Do Zone Sizing Calculation
  ,                                       !- Do System Sizing Calculation
  ,                                       !- Do Plant Sizing Calculation
  No;                                     !- Run Simulation for Sizing Periods

OS:Timestep,
  {8320d591-569b-42bf-adfb-16dcf5aff164}, !- Handle
  1;                                      !- Number of Timesteps per Hour

OS:ShadowCalculation,
  {77ea180e-a1bf-4aee-9fd5-4c7023c2c2a5}, !- Handle
  PolygonClipping,                        !- Shading Calculation Method
  ,                                       !- Shading Calculation Update Frequency Method
  20,                                     !- Shading Calculation Update Frequency
  200,                                    !- Maximum Figures in Shadow Overlap Calculations
  ,                                       !- Polygon Clipping Algorithm
  512,                                    !- Pixel Counting Resolution
  ,                                       !- Sky Diffuse Modeling Algorithm
  No,                                     !- Output External Shading Calculation Results
  No,                                     !- Disable Self-Shading Within Shading Zone Groups
  No;                                     !- Disable Self-Shading From Shading Zone Groups to Other Zones

OS:SurfaceConvectionAlgorithm:Outside,
  {a90de880-cd89-48ae-88d3-0975b896d87d}, !- Handle
  DOE-2;                                  !- Algorithm

OS:SurfaceConvectionAlgorithm:Inside,
  {de8ab0c5-f80f-41f2-b906-3a306bdfc47a}, !- Handle
  TARP;                                   !- Algorithm

OS:ZoneCapacitanceMultiplier:ResearchSpecial,
  {48256f4f-2e22-4f9f-a199-1f307a762a22}, !- Handle
  7,                                      !- Temperature Capacity Multiplier
  15,                                     !- Humidity Capacity Multiplier
  ;                                       !- Carbon Dioxide Capacity Multiplier

OS:ConvergenceLimits,
  {d9617766-2994-486b-a2d5-16cbc36ff02f}, !- Handle
  0;                                      !- Minimum System Timestep {minutes}

OS:RunPeriod,
  {0d74d4b9-aaa4-4b0e-bdad-aee061dc3a34}, !- Handle
  Run Period 1,                           !- Name
  1,                                      !- Begin Month
  1,                                      !- Begin Day of Month
  12,                                     !- End Month
  31,                                     !- End Day of Month
  ,                                       !- Use Weather File Holidays and Special Days
  ,                                       !- Use Weather File Daylight Saving Period
  ,                                       !- Apply Weekend Holiday Rule
  ,                                       !- Use Weather File Rain Indicators
  ,                                       !- Use Weather File Snow Indicators
  ;                                       !- Number of Times Runperiod to be Repeated

OS:PerformancePrecisionTradeoffs,
  {fa668ca5-873f-4797-a713-774c01401102}, !- Handle
  ,                                       !- Use Coil Direct Solutions
  CarrollMRT;                             !- Zone Radiant Exchange Algorithm

OS:WeatherFile,
  {62e192db-9af9-491e-8090-90f01db3c74a}, !- Handle
  Buffalo Niagara Intl Ap,                !- City
  NY,                                     !- State Province Region
  USA,                                    !- Country
  TMY3,                                   !- Data Source
  725280,                                 !- WMO Number
  42.93,                                  !- Latitude {deg}
  -78.73,                                 !- Longitude {deg}
  -5,                                     !- Time Zone {hr}
  215,                                    !- Elevation {m}
  /Users/nmoore/github/urbanopt-example-geojson-project/example_project/weather/USA_NY_Buffalo-Greater.Buffalo.Intl.AP.725280_TMY3.epw, !- Url
  6B50E0FF,                               !- Checksum
  ,                                       !- Start Date Actual Year
  Sunday;                                 !- Start Day of Week

OS:YearDescription,
  {12acd3c0-90df-4d4b-bfc8-80861da173ee}, !- Handle
  2007,                                   !- Calendar Year
  ,                                       !- Day of Week for Start Day
  ;                                       !- Is Leap Year

OS:Site,
  {2b26ea19-4c90-4ebb-85d9-619cb10bc22b}, !- Handle
  Buffalo Niagara Intl Ap_NY,             !- Name
  42.93,                                  !- Latitude {deg}
  -78.73,                                 !- Longitude {deg}
  -5,                                     !- Time Zone {hr}
  215,                                    !- Elevation {m}
  Suburbs,                                !- Terrain
  Yes;                                    !- Keep Site Location Information

OS:RunPeriodControl:DaylightSavingTime,
  {b9ac2338-a8c0-4902-8815-c5fb744717fc}, !- Handle
  Mar 12,                                 !- Start Date
  Nov 5;                                  !- End Date

OS:Site:GroundTemperature:Shallow,
  {3c0ce0fc-49ab-49e5-83d6-983c4771c41a}, !- Handle
  4.30207395723828,                       !- January Surface Ground Temperature {C}
  2.29327249652502,                       !- February Surface Ground Temperature {C}
  2.13240047156047,                       !- March Surface Ground Temperature {C}
  3.08567940719286,                       !- April Surface Ground Temperature {C}
  6.91256312497526,                       !- May Surface Ground Temperature {C}
  10.7216195949507,                       !- June Surface Ground Temperature {C}
  14.0238679822574,                       !- July Surface Ground Temperature {C}
  16.1157611184724,                       !- August Surface Ground Temperature {C}
  16.2934789303462,                       !- September Surface Ground Temperature {C}
  14.5920754632847,                       !- October Surface Ground Temperature {C}
  11.374036348653,                        !- November Surface Ground Temperature {C}
  7.68182621661674;                       !- December Surface Ground Temperature {C}

OS:ThermalZone,
  {24df5e4d-b9f7-4e02-8a4f-210fdf8d33ac}, !- Handle
  conditioned space,                      !- Name
  1,                                      !- Multiplier
  ,                                       !- Ceiling Height {m}
  692.06373070848,                        !- Volume {m3}
  ,                                       !- Floor Area {m2}
  ,                                       !- Zone Inside Convection Algorithm
  ,                                       !- Zone Outside Convection Algorithm
  ,                                       !- Zone Conditioning Equipment List Name
  {76335687-3a2d-4b31-9ab2-a2c23999deb6}, !- Zone Air Inlet Port List
  {b7894b6b-21ef-4729-a411-282c03fca694}, !- Zone Air Exhaust Port List
  {1e1123f2-dba1-4dd3-8aaa-25041ddbcf6f}, !- Zone Air Node Name
  {92a4f905-48ee-47c8-a6ee-f4b7473c87e7}, !- Zone Return Air Port List
  ,                                       !- Primary Daylighting Control Name
  ,                                       !- Fraction of Zone Controlled by Primary Daylighting Control
  ,                                       !- Secondary Daylighting Control Name
  ,                                       !- Fraction of Zone Controlled by Secondary Daylighting Control
  ,                                       !- Illuminance Map Name
  ,                                       !- Group Rendering Name
  {3d753661-940d-4a30-a6c0-ef4d24d84173}, !- Thermostat Name
  No;                                     !- Use Ideal Air Loads

OS:Node,
  {fa085ca7-fe41-4bbc-bbfe-aff74ea87d15}, !- Handle
  Node 1,                                 !- Name
  {1e1123f2-dba1-4dd3-8aaa-25041ddbcf6f}, !- Inlet Port
  ;                                       !- Outlet Port

OS:Connection,
  {1e1123f2-dba1-4dd3-8aaa-25041ddbcf6f}, !- Handle
  {24df5e4d-b9f7-4e02-8a4f-210fdf8d33ac}, !- Source Object
  11,                                     !- Outlet Port
  {fa085ca7-fe41-4bbc-bbfe-aff74ea87d15}, !- Target Object
  2;                                      !- Inlet Port

OS:PortList,
  {76335687-3a2d-4b31-9ab2-a2c23999deb6}, !- Handle
  {24df5e4d-b9f7-4e02-8a4f-210fdf8d33ac}, !- HVAC Component
  {efcab46c-c550-4a04-ace9-cb5febb6f072}; !- Port 1

OS:PortList,
  {b7894b6b-21ef-4729-a411-282c03fca694}, !- Handle
  {24df5e4d-b9f7-4e02-8a4f-210fdf8d33ac}; !- HVAC Component

OS:PortList,
  {92a4f905-48ee-47c8-a6ee-f4b7473c87e7}, !- Handle
  {24df5e4d-b9f7-4e02-8a4f-210fdf8d33ac}, !- HVAC Component
  {df8ae0b9-90de-4907-b32d-88f1bef6e1f5}; !- Port 1

OS:Sizing:Zone,
  {c492e46d-6ee3-4535-8c5c-2d794882729f}, !- Handle
  {24df5e4d-b9f7-4e02-8a4f-210fdf8d33ac}, !- Zone or ZoneList Name
  SupplyAirTemperature,                   !- Zone Cooling Design Supply Air Temperature Input Method
  14,                                     !- Zone Cooling Design Supply Air Temperature {C}
  11.11,                                  !- Zone Cooling Design Supply Air Temperature Difference {deltaC}
  SupplyAirTemperature,                   !- Zone Heating Design Supply Air Temperature Input Method
  40,                                     !- Zone Heating Design Supply Air Temperature {C}
  11.11,                                  !- Zone Heating Design Supply Air Temperature Difference {deltaC}
  0.0085,                                 !- Zone Cooling Design Supply Air Humidity Ratio {kg-H2O/kg-air}
  0.008,                                  !- Zone Heating Design Supply Air Humidity Ratio {kg-H2O/kg-air}
  ,                                       !- Zone Heating Sizing Factor
  ,                                       !- Zone Cooling Sizing Factor
  DesignDay,                              !- Cooling Design Air Flow Method
  ,                                       !- Cooling Design Air Flow Rate {m3/s}
  ,                                       !- Cooling Minimum Air Flow per Zone Floor Area {m3/s-m2}
  ,                                       !- Cooling Minimum Air Flow {m3/s}
  ,                                       !- Cooling Minimum Air Flow Fraction
  DesignDay,                              !- Heating Design Air Flow Method
  ,                                       !- Heating Design Air Flow Rate {m3/s}
  ,                                       !- Heating Maximum Air Flow per Zone Floor Area {m3/s-m2}
  ,                                       !- Heating Maximum Air Flow {m3/s}
  ,                                       !- Heating Maximum Air Flow Fraction
  No,                                     !- Account for Dedicated Outdoor Air System
  NeutralSupplyAir,                       !- Dedicated Outdoor Air System Control Strategy
  autosize,                               !- Dedicated Outdoor Air Low Setpoint Temperature for Design {C}
  autosize,                               !- Dedicated Outdoor Air High Setpoint Temperature for Design {C}
  Sensible Load Only No Latent Load,      !- Zone Load Sizing Method
  HumidityRatioDifference,                !- Zone Latent Cooling Design Supply Air Humidity Ratio Input Method
  ,                                       !- Zone Dehumidification Design Supply Air Humidity Ratio {kgWater/kgDryAir}
  0.005,                                  !- Zone Cooling Design Supply Air Humidity Ratio Difference {kgWater/kgDryAir}
  HumidityRatioDifference,                !- Zone Latent Heating Design Supply Air Humidity Ratio Input Method
  ,                                       !- Zone Humidification Design Supply Air Humidity Ratio {kgWater/kgDryAir}
  0.005,                                  !- Zone Humidification Design Supply Air Humidity Ratio Difference {kgWater/kgDryAir}
  ,                                       !- Zone Humidistat Dehumidification Set Point Schedule Name
  ,                                       !- Zone Humidistat Humidification Set Point Schedule Name
  ,                                       !- Design Zone Air Distribution Effectiveness in Cooling Mode
  ,                                       !- Design Zone Air Distribution Effectiveness in Heating Mode
  ,                                       !- Design Zone Secondary Recirculation Fraction {dimensionless}
  ,                                       !- Design Minimum Zone Ventilation Efficiency {dimensionless}
  Coincident;                             !- Sizing Option

OS:ZoneHVAC:EquipmentList,
  {05283a3d-1fec-4cd2-ab0e-f8601f937c23}, !- Handle
  Zone HVAC Equipment List 1,             !- Name
  {24df5e4d-b9f7-4e02-8a4f-210fdf8d33ac}, !- Thermal Zone
  ,                                       !- Load Distribution Scheme
  {47217491-232f-44bd-9c66-d9694f4ff493}, !- Zone Equipment 1
  1,                                      !- Zone Equipment Cooling Sequence 1
  1,                                      !- Zone Equipment Heating or No-Load Sequence 1
  {02dbac03-60e8-4928-8a2a-79adbfcdfb11}, !- Zone Equipment Sequential Cooling Fraction Schedule Name 1
  {bcaee1b5-4987-4f4c-9666-a8d3c94ee657}; !- Zone Equipment Sequential Heating Fraction Schedule Name 1

OS:AdditionalProperties,
  {efd98056-565f-4d10-b403-e6571ab7642d}, !- Handle
  {24df5e4d-b9f7-4e02-8a4f-210fdf8d33ac}, !- Object Name
  ObjectType,                             !- Feature Name 1
  String,                                 !- Feature Data Type 1
  conditioned space;                      !- Feature Value 1

OS:Space,
  {2b806b01-7b1b-4d93-8574-b0d75282a73b}, !- Handle
  conditioned space 1,                    !- Name
  ,                                       !- Space Type Name
  ,                                       !- Default Construction Set Name
  ,                                       !- Default Schedule Set Name
  ,                                       !- Direction of Relative North {deg}
  ,                                       !- X Origin {m}
  ,                                       !- Y Origin {m}
  ,                                       !- Z Origin {m}
  ,                                       !- Building Story Name
  {24df5e4d-b9f7-4e02-8a4f-210fdf8d33ac}, !- Thermal Zone Name
  ,                                       !- Part of Total Floor Area
  ,                                       !- Design Specification Outdoor Air Object Name
  ,                                       !- Building Unit Name
  692.06373070848;                        !- Volume {m3}

OS:Schedule:Ruleset,
  {8f94f01b-40b2-4ae0-90c6-0ac2b0049633}, !- Handle
  heating setpoint,                       !- Name
  {7ec005b3-8dbe-4bd8-8d25-d2ef9581daaa}, !- Schedule Type Limits Name
  {fdf4dee5-12f9-479d-bea2-a769beea7a0d}; !- Default Day Schedule Name

OS:Schedule:Day,
  {fdf4dee5-12f9-479d-bea2-a769beea7a0d}, !- Handle
  heating setpoint default day,           !- Name
  {7ec005b3-8dbe-4bd8-8d25-d2ef9581daaa}, !- Schedule Type Limits Name
  ,                                       !- Interpolate to Timestep
  24,                                     !- Hour 1
  0,                                      !- Minute 1
  0;                                      !- Value Until Time 1

OS:Schedule:Rule,
  {c5fadb9f-e178-4796-a149-66882058c48b}, !- Handle
  heating setpoint allday rule,           !- Name
  {8f94f01b-40b2-4ae0-90c6-0ac2b0049633}, !- Schedule Ruleset Name
  0,                                      !- Rule Order
  {55391aff-e913-46cd-ba8c-380e3685a8db}, !- Day Schedule Name
  Yes,                                    !- Apply Sunday
  Yes,                                    !- Apply Monday
  Yes,                                    !- Apply Tuesday
  Yes,                                    !- Apply Wednesday
  Yes,                                    !- Apply Thursday
  Yes,                                    !- Apply Friday
  Yes,                                    !- Apply Saturday
  DateRange,                              !- Date Specification Type
  1,                                      !- Start Month
  1,                                      !- Start Day
  12,                                     !- End Month
  31;                                     !- End Day

OS:Schedule:Day,
  {55391aff-e913-46cd-ba8c-380e3685a8db}, !- Handle
  heating setpoint day,                   !- Name
  {7ec005b3-8dbe-4bd8-8d25-d2ef9581daaa}, !- Schedule Type Limits Name
  ,                                       !- Interpolate to Timestep
  24,                                     !- Hour 1
  0,                                      !- Minute 1
  20;                                     !- Value Until Time 1

OS:Schedule:Ruleset,
  {933c6673-5ebf-433d-8ce8-5782d4859eab}, !- Handle
  cooling setpoint,                       !- Name
  {7ec005b3-8dbe-4bd8-8d25-d2ef9581daaa}, !- Schedule Type Limits Name
  {bc891219-ffa1-4bf8-b430-50b7848cfb14}; !- Default Day Schedule Name

OS:Schedule:Day,
  {bc891219-ffa1-4bf8-b430-50b7848cfb14}, !- Handle
  cooling setpoint default day,           !- Name
  {7ec005b3-8dbe-4bd8-8d25-d2ef9581daaa}, !- Schedule Type Limits Name
  ,                                       !- Interpolate to Timestep
  24,                                     !- Hour 1
  0,                                      !- Minute 1
  0;                                      !- Value Until Time 1

OS:Schedule:Rule,
  {298ccfff-8575-4bf1-901a-3d51b572eef4}, !- Handle
  cooling setpoint allday rule,           !- Name
  {933c6673-5ebf-433d-8ce8-5782d4859eab}, !- Schedule Ruleset Name
  0,                                      !- Rule Order
  {10a5fe41-5209-4e23-bebd-9364e4482346}, !- Day Schedule Name
  Yes,                                    !- Apply Sunday
  Yes,                                    !- Apply Monday
  Yes,                                    !- Apply Tuesday
  Yes,                                    !- Apply Wednesday
  Yes,                                    !- Apply Thursday
  Yes,                                    !- Apply Friday
  Yes,                                    !- Apply Saturday
  DateRange,                              !- Date Specification Type
  1,                                      !- Start Month
  1,                                      !- Start Day
  12,                                     !- End Month
  31;                                     !- End Day

OS:Schedule:Day,
  {10a5fe41-5209-4e23-bebd-9364e4482346}, !- Handle
  cooling setpoint day,                   !- Name
  {7ec005b3-8dbe-4bd8-8d25-d2ef9581daaa}, !- Schedule Type Limits Name
  ,                                       !- Interpolate to Timestep
  24,                                     !- Hour 1
  0,                                      !- Minute 1
  25.5555555555556;                       !- Value Until Time 1

OS:ThermostatSetpoint:DualSetpoint,
  {3d753661-940d-4a30-a6c0-ef4d24d84173}, !- Handle
  conditioned space temperature setpoint, !- Name
  {8f94f01b-40b2-4ae0-90c6-0ac2b0049633}, !- Heating Setpoint Temperature Schedule Name
  {933c6673-5ebf-433d-8ce8-5782d4859eab}, !- Cooling Setpoint Temperature Schedule Name
  0;                                      !- Temperature Difference Between Cutout And Setpoint {deltaC}

OS:ScheduleTypeLimits,
  {7ec005b3-8dbe-4bd8-8d25-d2ef9581daaa}, !- Handle
  Temperature,                            !- Name
  ,                                       !- Lower Limit Value
  ,                                       !- Upper Limit Value
  Continuous,                             !- Numeric Type
  Temperature;                            !- Unit Type

OS:Surface,
  {6820d313-4e9d-4d6c-b624-94a3de46120e}, !- Handle
  Roof1,                                  !- Name
  RoofCeiling,                            !- Surface Type
  {23080832-f5a8-40d3-a7de-d0199031f045}, !- Construction Name
  {900a60c4-c93c-4429-9ac7-e4cdebab79bf}, !- Space Name
  Outdoors,                               !- Outside Boundary Condition
  ,                                       !- Outside Boundary Condition Object
  SunExposed,                             !- Sun Exposure
  WindExposed,                            !- Wind Exposure
  ,                                       !- View Factor to Ground
  ,                                       !- Number of Vertices
  -26.9347048849634, 58.0557891618865, 2.4384, !- X,Y,Z Vertex 1 {m}
  -26.9347048849634, 46.7895631136661, 8.0715130241102, !- X,Y,Z Vertex 2 {m}
  -14.3386812381136, 46.7895631136661, 8.0715130241102, !- X,Y,Z Vertex 3 {m}
  -14.3386812381136, 58.0557891618865, 2.4384; !- X,Y,Z Vertex 4 {m}

OS:AdditionalProperties,
  {e0d1f144-44ab-494d-a3dd-283822ac05ad}, !- Handle
  {6820d313-4e9d-4d6c-b624-94a3de46120e}, !- Object Name
  Length,                                 !- Feature Name 1
  Double,                                 !- Feature Data Type 1
  41.325536899113608,                     !- Feature Value 1
  Width,                                  !- Feature Name 2
  Double,                                 !- Feature Data Type 2
  41.325536899113601,                     !- Feature Value 2
  Azimuth,                                !- Feature Name 3
  Integer,                                !- Feature Data Type 3
  0,                                      !- Feature Value 3
  Tilt,                                   !- Feature Name 4
  Double,                                 !- Feature Data Type 4
  0.5,                                    !- Feature Value 4
  SurfaceType,                            !- Feature Name 5
  String,                                 !- Feature Data Type 5
  Roof;                                   !- Feature Value 5

OS:ThermalZone,
  {f120a3e3-bb42-4b92-b2d9-c0936c1760de}, !- Handle
  attic - vented,                         !- Name
  1,                                      !- Multiplier
  ,                                       !- Ceiling Height {m}
  356.389957095237,                       !- Volume {m3}
  ,                                       !- Floor Area {m2}
  ,                                       !- Zone Inside Convection Algorithm
  ,                                       !- Zone Outside Convection Algorithm
  ,                                       !- Zone Conditioning Equipment List Name
  {c3a54972-b0d4-42be-b3ee-a5f24f8d6717}, !- Zone Air Inlet Port List
  {f5244b52-656d-4d2b-8818-214ccb2213e0}, !- Zone Air Exhaust Port List
  {df267b94-ddb9-436e-82cc-cb2e41be42f8}, !- Zone Air Node Name
  {21f61865-b94d-4476-8779-d03a3cc077f5}, !- Zone Return Air Port List
  ,                                       !- Primary Daylighting Control Name
  ,                                       !- Fraction of Zone Controlled by Primary Daylighting Control
  ,                                       !- Secondary Daylighting Control Name
  ,                                       !- Fraction of Zone Controlled by Secondary Daylighting Control
  ,                                       !- Illuminance Map Name
  ,                                       !- Group Rendering Name
  ,                                       !- Thermostat Name
  No;                                     !- Use Ideal Air Loads

OS:Node,
  {fd8ae738-851c-455f-a8d9-416e71837c00}, !- Handle
  Node 2,                                 !- Name
  {df267b94-ddb9-436e-82cc-cb2e41be42f8}, !- Inlet Port
  ;                                       !- Outlet Port

OS:Connection,
  {df267b94-ddb9-436e-82cc-cb2e41be42f8}, !- Handle
  {f120a3e3-bb42-4b92-b2d9-c0936c1760de}, !- Source Object
  11,                                     !- Outlet Port
  {fd8ae738-851c-455f-a8d9-416e71837c00}, !- Target Object
  2;                                      !- Inlet Port

OS:PortList,
  {c3a54972-b0d4-42be-b3ee-a5f24f8d6717}, !- Handle
  {f120a3e3-bb42-4b92-b2d9-c0936c1760de}; !- HVAC Component

OS:PortList,
  {f5244b52-656d-4d2b-8818-214ccb2213e0}, !- Handle
  {f120a3e3-bb42-4b92-b2d9-c0936c1760de}; !- HVAC Component

OS:PortList,
  {21f61865-b94d-4476-8779-d03a3cc077f5}, !- Handle
  {f120a3e3-bb42-4b92-b2d9-c0936c1760de}; !- HVAC Component

OS:Sizing:Zone,
  {cf02f61e-d3ad-4518-9b4f-6e5126ae3da7}, !- Handle
  {f120a3e3-bb42-4b92-b2d9-c0936c1760de}, !- Zone or ZoneList Name
  SupplyAirTemperature,                   !- Zone Cooling Design Supply Air Temperature Input Method
  14,                                     !- Zone Cooling Design Supply Air Temperature {C}
  11.11,                                  !- Zone Cooling Design Supply Air Temperature Difference {deltaC}
  SupplyAirTemperature,                   !- Zone Heating Design Supply Air Temperature Input Method
  40,                                     !- Zone Heating Design Supply Air Temperature {C}
  11.11,                                  !- Zone Heating Design Supply Air Temperature Difference {deltaC}
  0.0085,                                 !- Zone Cooling Design Supply Air Humidity Ratio {kg-H2O/kg-air}
  0.008,                                  !- Zone Heating Design Supply Air Humidity Ratio {kg-H2O/kg-air}
  ,                                       !- Zone Heating Sizing Factor
  ,                                       !- Zone Cooling Sizing Factor
  DesignDay,                              !- Cooling Design Air Flow Method
  ,                                       !- Cooling Design Air Flow Rate {m3/s}
  ,                                       !- Cooling Minimum Air Flow per Zone Floor Area {m3/s-m2}
  ,                                       !- Cooling Minimum Air Flow {m3/s}
  ,                                       !- Cooling Minimum Air Flow Fraction
  DesignDay,                              !- Heating Design Air Flow Method
  ,                                       !- Heating Design Air Flow Rate {m3/s}
  ,                                       !- Heating Maximum Air Flow per Zone Floor Area {m3/s-m2}
  ,                                       !- Heating Maximum Air Flow {m3/s}
  ,                                       !- Heating Maximum Air Flow Fraction
  No,                                     !- Account for Dedicated Outdoor Air System
  NeutralSupplyAir,                       !- Dedicated Outdoor Air System Control Strategy
  autosize,                               !- Dedicated Outdoor Air Low Setpoint Temperature for Design {C}
  autosize,                               !- Dedicated Outdoor Air High Setpoint Temperature for Design {C}
  Sensible Load Only No Latent Load,      !- Zone Load Sizing Method
  HumidityRatioDifference,                !- Zone Latent Cooling Design Supply Air Humidity Ratio Input Method
  ,                                       !- Zone Dehumidification Design Supply Air Humidity Ratio {kgWater/kgDryAir}
  0.005,                                  !- Zone Cooling Design Supply Air Humidity Ratio Difference {kgWater/kgDryAir}
  HumidityRatioDifference,                !- Zone Latent Heating Design Supply Air Humidity Ratio Input Method
  ,                                       !- Zone Humidification Design Supply Air Humidity Ratio {kgWater/kgDryAir}
  0.005,                                  !- Zone Humidification Design Supply Air Humidity Ratio Difference {kgWater/kgDryAir}
  ,                                       !- Zone Humidistat Dehumidification Set Point Schedule Name
  ,                                       !- Zone Humidistat Humidification Set Point Schedule Name
  ,                                       !- Design Zone Air Distribution Effectiveness in Cooling Mode
  ,                                       !- Design Zone Air Distribution Effectiveness in Heating Mode
  ,                                       !- Design Zone Secondary Recirculation Fraction {dimensionless}
  ,                                       !- Design Minimum Zone Ventilation Efficiency {dimensionless}
  Coincident;                             !- Sizing Option

OS:ZoneHVAC:EquipmentList,
  {ef9275ac-e77f-4cdd-ad4f-b5d610420b93}, !- Handle
  Zone HVAC Equipment List 2,             !- Name
  {f120a3e3-bb42-4b92-b2d9-c0936c1760de}; !- Thermal Zone

OS:AdditionalProperties,
  {cc637470-e237-4a4d-838b-07e11cb1ddad}, !- Handle
  {f120a3e3-bb42-4b92-b2d9-c0936c1760de}, !- Object Name
  ObjectType,                             !- Feature Name 1
  String,                                 !- Feature Data Type 1
  attic - vented;                         !- Feature Value 1

OS:Space,
  {900a60c4-c93c-4429-9ac7-e4cdebab79bf}, !- Handle
  attic - vented 1,                       !- Name
  ,                                       !- Space Type Name
  ,                                       !- Default Construction Set Name
  ,                                       !- Default Schedule Set Name
  ,                                       !- Direction of Relative North {deg}
  ,                                       !- X Origin {m}
  ,                                       !- Y Origin {m}
  ,                                       !- Z Origin {m}
  ,                                       !- Building Story Name
  {f120a3e3-bb42-4b92-b2d9-c0936c1760de}, !- Thermal Zone Name
  ,                                       !- Part of Total Floor Area
  ,                                       !- Design Specification Outdoor Air Object Name
  ,                                       !- Building Unit Name
  356.389957095237;                       !- Volume {m3}

OS:Material,
  {2c6700b6-ecb7-4fce-bc3b-e10f6449d3a1}, !- Handle
  asphalt or fiberglass shingles,         !- Name
  Rough,                                  !- Roughness
  0.00635,                                !- Thickness {m}
  0.162714,                               !- Conductivity {W/m-K}
  1121.4,                                 !- Density {kg/m3}
  1465.45,                                !- Specific Heat {J/kg-K}
  0.9,                                    !- Thermal Absorptance
  0.85,                                   !- Solar Absorptance