
OS:Version,
  {1fd089db-19f8-4306-9063-a99ea68e80a2}, !- Handle
  3.10.0;                                 !- Version Identifier

OS:SimulationControl,
  {274326e3-2f8d-402c-9745-2e417d3c54bd}, !- Handle
  ,                                       !- Do Zone Sizing Calculation
  ,                                       !- Do System Sizing Calculation
  ,                                       !- Do Plant Sizing Calculation
  No;                                     !- Run Simulation for Sizing Periods

OS:Timestep,
  {e0234470-8474-47aa-967f-dc5901736d18}, !- Handle
  1;                                      !- Number of Timesteps per Hour

OS:ShadowCalculation,
  {bbe44a61-18cc-4cf9-8874-4ce058ecf9b6}, !- Handle
  PolygonClipping,                        !- Shading Calculation Method
  ,                                       !- Shading Calculation Update Frequency Method
  20,                                     !- Shading Calculation Update Frequency
  200,                                    !- Maximum Figures in Shadow Overlap Calculations
  ,                                       !- Polygon Clipping Algorithm
  512,                                    !- Pixel Counting Resolution
  ,                                       !- Sky Diffuse Modeling Algorithm
  No,                                     !- Output External Shading Calculation Results
  No,                                     !- Disable Self-Shading Within Shading Zone Groups
  No;                                     !- Disable Self-Shading From Shading Zone Groups to Other Zones

OS:SurfaceConvectionAlgorithm:Outside,
  {105635b2-39a4-4591-ab3c-ba77282d6068}, !- Handle
  DOE-2;                                  !- Algorithm

OS:SurfaceConvectionAlgorithm:Inside,
  {ac763d8d-0ce3-4371-98b1-9c831aaba3ad}, !- Handle
  TARP;                                   !- Algorithm

OS:ZoneCapacitanceMultiplier:ResearchSpecial,
  {44637fb7-cf57-4081-84ae-dac5d7bc5f92}, !- Handle
  7,                                      !- Temperature Capacity Multiplier
  15,                                     !- Humidity Capacity Multiplier
  ;                                       !- Carbon Dioxide Capacity Multiplier

OS:ConvergenceLimits,
  {b9ff5369-d98e-494c-8738-6cae3199a610}, !- Handle
  0;                                      !- Minimum System Timestep {minutes}

OS:RunPeriod,
  {8abed49e-5b55-45ac-b672-a3271f77e25e}, !- Handle
  Run Period 1,                           !- Name
  1,                                      !- Begin Month
  1,                                      !- Begin Day of Month
  12,                                     !- End Month
  31,                                     !- End Day of Month
  ,                                       !- Use Weather File Holidays and Special Days
  ,                                       !- Use Weather File Daylight Saving Period
  ,                                       !- Apply Weekend Holiday Rule
  ,                                       !- Use Weather File Rain Indicators
  ,                                       !- Use Weather File Snow Indicators
  ;                                       !- Number of Times Runperiod to be Repeated

OS:PerformancePrecisionTradeoffs,
  {9b9579ba-c985-4131-9c7b-15480d396f6c}, !- Handle
  ,                                       !- Use Coil Direct Solutions
  CarrollMRT;                             !- Zone Radiant Exchange Algorithm

OS:WeatherFile,
  {0b7edd88-996a-440b-8214-9f4e613bcd25}, !- Handle
  Buffalo Niagara Intl Ap,                !- City
  NY,                                     !- State Province Region
  USA,                                    !- Country
  TMY3,                                   !- Data Source
  725280,                                 !- WMO Number
  42.93,                                  !- Latitude {deg}
  -78.73,                                 !- Longitude {deg}
  -5,                                     !- Time Zone {hr}
  215,                                    !- Elevation {m}
  /Users/nmoore/github/urbanopt-example-geojson-project/example_project/weather/USA_NY_Buffalo-Greater.Buffalo.Intl.AP.725280_TMY3.epw, !- Url
  6B50E0FF,                               !- Checksum
  ,                                       !- Start Date Actual Year
  Sunday;                                 !- Start Day of Week

OS:YearDescription,
  {47bae77f-79b5-46ec-af90-1c62214c08f4}, !- Handle
  2007,                                   !- Calendar Year
  ,                                       !- Day of Week for Start Day
  ;                                       !- Is Leap Year

OS:Site,
  {a39558b6-b72b-4b4f-aee6-f7f0791ade0f}, !- Handle
  Buffalo Niagara Intl Ap_NY,             !- Name
  42.93,                                  !- Latitude {deg}
  -78.73,                                 !- Longitude {deg}
  -5,                                     !- Time Zone {hr}
  215,                                    !- Elevation {m}
  Suburbs,                                !- Terrain
  Yes;                                    !- Keep Site Location Information

OS:RunPeriodControl:DaylightSavingTime,
  {9de611e5-569d-4f82-83b1-0c6132562abc}, !- Handle
  Mar 12,                                 !- Start Date
  Nov 5;                                  !- End Date

OS:Site:GroundTemperature:Shallow,
  {cf30e853-c722-471d-a63a-3e1221d4e462}, !- Handle
  4.30207395723828,                       !- January Surface Ground Temperature {C}
  2.29327249652502,                       !- February Surface Ground Temperature {C}
  2.13240047156047,                       !- March Surface Ground Temperature {C}
  3.08567940719286,                       !- April Surface Ground Temperature {C}
  6.91256312497526,                       !- May Surface Ground Temperature {C}
  10.7216195949507,                       !- June Surface Ground Temperature {C}
  14.0238679822574,                       !- July Surface Ground Temperature {C}
  16.1157611184724,                       !- August Surface Ground Temperature {C}
  16.2934789303462,                       !- September Surface Ground Temperature {C}
  14.5920754632847,                       !- October Surface Ground Temperature {C}
  11.374036348653,                        !- November Surface Ground Temperature {C}
  7.68182621661674;                       !- December Surface Ground Temperature {C}

OS:ThermalZone,
  {1226a2ca-2489-4bbb-a660-7bf9afd17e08}, !- Handle
  conditioned space,                      !- Name
  1,                                      !- Multiplier
  ,                                       !- Ceiling Height {m}
  692.06373070848,                        !- Volume {m3}
  ,                                       !- Floor Area {m2}
  ,                                       !- Zone Inside Convection Algorithm
  ,                                       !- Zone Outside Convection Algorithm
  ,                                       !- Zone Conditioning Equipment List Name
  {d933c505-f776-43c7-b9f8-9a2c6bf03946}, !- Zone Air Inlet Port List
  {bc71e394-ccb3-4a28-94ec-a106ba2aae9b}, !- Zone Air Exhaust Port List
  {c3d7f222-083a-4db1-82a4-a96788e270c3}, !- Zone Air Node Name
  {f7cfa610-0f5e-4d25-b708-d042211d07fc}, !- Zone Return Air Port List
  ,                                       !- Primary Daylighting Control Name
  ,                                       !- Fraction of Zone Controlled by Primary Daylighting Control
  ,                                       !- Secondary Daylighting Control Name
  ,                                       !- Fraction of Zone Controlled by Secondary Daylighting Control
  ,                                       !- Illuminance Map Name
  ,                                       !- Group Rendering Name
  {09a1d823-a8dd-4c74-af5b-5423734a22f4}, !- Thermostat Name
  No;                                     !- Use Ideal Air Loads

OS:Node,
  {ac621873-5d32-4ccb-9ef3-18e283566b7b}, !- Handle
  Node 1,                                 !- Name
  {c3d7f222-083a-4db1-82a4-a96788e270c3}, !- Inlet Port
  ;                                       !- Outlet Port

OS:Connection,
  {c3d7f222-083a-4db1-82a4-a96788e270c3}, !- Handle
  {1226a2ca-2489-4bbb-a660-7bf9afd17e08}, !- Source Object
  11,                                     !- Outlet Port
  {ac621873-5d32-4ccb-9ef3-18e283566b7b}, !- Target Object
  2;                                      !- Inlet Port

OS:PortList,
  {d933c505-f776-43c7-b9f8-9a2c6bf03946}, !- Handle
  {1226a2ca-2489-4bbb-a660-7bf9afd17e08}, !- HVAC Component
  {8a0626d7-d5af-401a-8a52-126103b0945f}; !- Port 1

OS:PortList,
  {bc71e394-ccb3-4a28-94ec-a106ba2aae9b}, !- Handle
  {1226a2ca-2489-4bbb-a660-7bf9afd17e08}; !- HVAC Component

OS:PortList,
  {f7cfa610-0f5e-4d25-b708-d042211d07fc}, !- Handle
  {1226a2ca-2489-4bbb-a660-7bf9afd17e08}, !- HVAC Component
  {291f5acf-5ddd-43f8-9712-2694565734aa}; !- Port 1

OS:Sizing:Zone,
  {a4c84512-8905-4f97-8965-091634e1925b}, !- Handle
  {1226a2ca-2489-4bbb-a660-7bf9afd17e08}, !- Zone or ZoneList Name
  SupplyAirTemperature,                   !- Zone Cooling Design Supply Air Temperature Input Method
  14,                                     !- Zone Cooling Design Supply Air Temperature {C}
  11.11,                                  !- Zone Cooling Design Supply Air Temperature Difference {deltaC}
  SupplyAirTemperature,                   !- Zone Heating Design Supply Air Temperature Input Method
  40,                                     !- Zone Heating Design Supply Air Temperature {C}
  11.11,                                  !- Zone Heating Design Supply Air Temperature Difference {deltaC}
  0.0085,                                 !- Zone Cooling Design Supply Air Humidity Ratio {kg-H2O/kg-air}
  0.008,                                  !- Zone Heating Design Supply Air Humidity Ratio {kg-H2O/kg-air}
  ,                                       !- Zone Heating Sizing Factor
  ,                                       !- Zone Cooling Sizing Factor
  DesignDay,                              !- Cooling Design Air Flow Method
  ,                                       !- Cooling Design Air Flow Rate {m3/s}
  ,                                       !- Cooling Minimum Air Flow per Zone Floor Area {m3/s-m2}
  ,                                       !- Cooling Minimum Air Flow {m3/s}
  ,                                       !- Cooling Minimum Air Flow Fraction
  DesignDay,                              !- Heating Design Air Flow Method
  ,                                       !- Heating Design Air Flow Rate {m3/s}
  ,                                       !- Heating Maximum Air Flow per Zone Floor Area {m3/s-m2}
  ,                                       !- Heating Maximum Air Flow {m3/s}
  ,                                       !- Heating Maximum Air Flow Fraction
  No,                                     !- Account for Dedicated Outdoor Air System
  NeutralSupplyAir,                       !- Dedicated Outdoor Air System Control Strategy
  autosize,                               !- Dedicated Outdoor Air Low Setpoint Temperature for Design {C}
  autosize,                               !- Dedicated Outdoor Air High Setpoint Temperature for Design {C}
  Sensible Load Only No Latent Load,      !- Zone Load Sizing Method
  HumidityRatioDifference,                !- Zone Latent Cooling Design Supply Air Humidity Ratio Input Method
  ,                                       !- Zone Dehumidification Design Supply Air Humidity Ratio {kgWater/kgDryAir}
  0.005,                                  !- Zone Cooling Design Supply Air Humidity Ratio Difference {kgWater/kgDryAir}
  HumidityRatioDifference,                !- Zone Latent Heating Design Supply Air Humidity Ratio Input Method
  ,                                       !- Zone Humidification Design Supply Air Humidity Ratio {kgWater/kgDryAir}
  0.005,                                  !- Zone Humidification Design Supply Air Humidity Ratio Difference {kgWater/kgDryAir}
  ,                                       !- Zone Humidistat Dehumidification Set Point Schedule Name
  ,                                       !- Zone Humidistat Humidification Set Point Schedule Name
  ,                                       !- Design Zone Air Distribution Effectiveness in Cooling Mode
  ,                                       !- Design Zone Air Distribution Effectiveness in Heating Mode
  ,                                       !- Design Zone Secondary Recirculation Fraction {dimensionless}
  ,                                       !- Design Minimum Zone Ventilation Efficiency {dimensionless}
  Coincident;                             !- Sizing Option

OS:ZoneHVAC:EquipmentList,
  {c089f5d0-2f3c-4f1e-bdde-6f3ee7421e4f}, !- Handle
  Zone HVAC Equipment List 1,             !- Name
  {1226a2ca-2489-4bbb-a660-7bf9afd17e08}, !- Thermal Zone
  ,                                       !- Load Distribution Scheme
  {0e3c1b32-d0f9-4504-b2c4-9c5ff82197ca}, !- Zone Equipment 1
  1,                                      !- Zone Equipment Cooling Sequence 1
  1,                                      !- Zone Equipment Heating or No-Load Sequence 1
  {c0cdc64a-c8c0-4dfc-9cb8-8874bd8d4bc5}, !- Zone Equipment Sequential Cooling Fraction Schedule Name 1
  {8098c302-c5e5-4276-9a93-c50193a345bd}; !- Zone Equipment Sequential Heating Fraction Schedule Name 1

OS:AdditionalProperties,
  {242a48e8-1e6f-4f08-82d9-b11faa99e694}, !- Handle
  {1226a2ca-2489-4bbb-a660-7bf9afd17e08}, !- Object Name
  ObjectType,                             !- Feature Name 1
  String,                                 !- Feature Data Type 1
  conditioned space;                      !- Feature Value 1

OS:Space,
  {35ca5ee2-9165-4f75-8d00-fdb772599fee}, !- Handle
  conditioned space 1,                    !- Name
  ,                                       !- Space Type Name
  ,                                       !- Default Construction Set Name
  ,                                       !- Default Schedule Set Name
  ,                                       !- Direction of Relative North {deg}
  ,                                       !- X Origin {m}
  ,                                       !- Y Origin {m}
  ,                                       !- Z Origin {m}
  ,                                       !- Building Story Name
  {1226a2ca-2489-4bbb-a660-7bf9afd17e08}, !- Thermal Zone Name
  ,                                       !- Part of Total Floor Area
  ,                                       !- Design Specification Outdoor Air Object Name
  ,                                       !- Building Unit Name
  692.06373070848;                        !- Volume {m3}

OS:Schedule:Ruleset,
  {4b0fad20-9a15-4748-b8bf-37a53e79d855}, !- Handle
  heating setpoint,                       !- Name
  {2d9e271c-2423-4c98-8769-b2f1b1dcbbd6}, !- Schedule Type Limits Name
  {5a570cae-4ade-4c8c-bfe4-2885296b40ea}; !- Default Day Schedule Name

OS:Schedule:Day,
  {5a570cae-4ade-4c8c-bfe4-2885296b40ea}, !- Handle
  heating setpoint default day,           !- Name
  {2d9e271c-2423-4c98-8769-b2f1b1dcbbd6}, !- Schedule Type Limits Name
  ,                                       !- Interpolate to Timestep
  24,                                     !- Hour 1
  0,                                      !- Minute 1
  0;                                      !- Value Until Time 1

OS:Schedule:Rule,
  {d9891129-62a8-4abc-b376-6792d7c32580}, !- Handle
  heating setpoint allday rule,           !- Name
  {4b0fad20-9a15-4748-b8bf-37a53e79d855}, !- Schedule Ruleset Name
  0,                                      !- Rule Order
  {20d3d5be-771d-478d-89eb-82f5c7d54641}, !- Day Schedule Name
  Yes,                                    !- Apply Sunday
  Yes,                                    !- Apply Monday
  Yes,                                    !- Apply Tuesday
  Yes,                                    !- Apply Wednesday
  Yes,                                    !- Apply Thursday
  Yes,                                    !- Apply Friday
  Yes,                                    !- Apply Saturday
  DateRange,                              !- Date Specification Type
  1,                                      !- Start Month
  1,                                      !- Start Day
  12,                                     !- End Month
  31;                                     !- End Day

OS:Schedule:Day,
  {20d3d5be-771d-478d-89eb-82f5c7d54641}, !- Handle
  heating setpoint day,                   !- Name
  {2d9e271c-2423-4c98-8769-b2f1b1dcbbd6}, !- Schedule Type Limits Name
  ,                                       !- Interpolate to Timestep
  24,                                     !- Hour 1
  0,                                      !- Minute 1
  20;                                     !- Value Until Time 1

OS:Schedule:Ruleset,
  {a43762b0-df42-4548-ae08-3dcab7ef86ec}, !- Handle
  cooling setpoint,                       !- Name
  {2d9e271c-2423-4c98-8769-b2f1b1dcbbd6}, !- Schedule Type Limits Name
  {1d79ec63-120e-49f0-aca4-7f6d0774a9c7}; !- Default Day Schedule Name

OS:Schedule:Day,
  {1d79ec63-120e-49f0-aca4-7f6d0774a9c7}, !- Handle
  cooling setpoint default day,           !- Name
  {2d9e271c-2423-4c98-8769-b2f1b1dcbbd6}, !- Schedule Type Limits Name
  ,                                       !- Interpolate to Timestep
  24,                                     !- Hour 1
  0,                                      !- Minute 1
  0;                                      !- Value Until Time 1

OS:Schedule:Rule,
  {52a1e03d-0b9d-40e1-9ac5-e15f6361354a}, !- Handle
  cooling setpoint allday rule,           !- Name
  {a43762b0-df42-4548-ae08-3dcab7ef86ec}, !- Schedule Ruleset Name
  0,                                      !- Rule Order
  {07a86705-77fe-4628-9b72-bc58c9051bf2}, !- Day Schedule Name
  Yes,                                    !- Apply Sunday
  Yes,                                    !- Apply Monday
  Yes,                                    !- Apply Tuesday
  Yes,                                    !- Apply Wednesday
  Yes,                                    !- Apply Thursday
  Yes,                                    !- Apply Friday
  Yes,                                    !- Apply Saturday
  DateRange,                              !- Date Specification Type
  1,                                      !- Start Month
  1,                                      !- Start Day
  12,                                     !- End Month
  31;                                     !- End Day

OS:Schedule:Day,
  {07a86705-77fe-4628-9b72-bc58c9051bf2}, !- Handle
  cooling setpoint day,                   !- Name
  {2d9e271c-2423-4c98-8769-b2f1b1dcbbd6}, !- Schedule Type Limits Name
  ,                                       !- Interpolate to Timestep
  24,                                     !- Hour 1
  0,                                      !- Minute 1
  25.5555555555556;                       !- Value Until Time 1

OS:ThermostatSetpoint:DualSetpoint,
  {09a1d823-a8dd-4c74-af5b-5423734a22f4}, !- Handle
  conditioned space temperature setpoint, !- Name
  {4b0fad20-9a15-4748-b8bf-37a53e79d855}, !- Heating Setpoint Temperature Schedule Name
  {a43762b0-df42-4548-ae08-3dcab7ef86ec}, !- Cooling Setpoint Temperature Schedule Name
  0;                                      !- Temperature Difference Between Cutout And Setpoint {deltaC}

OS:ScheduleTypeLimits,
  {2d9e271c-2423-4c98-8769-b2f1b1dcbbd6}, !- Handle
  Temperature,                            !- Name
  ,                                       !- Lower Limit Value
  ,                                       !- Upper Limit Value
  Continuous,                             !- Numeric Type
  Temperature;                            !- Unit Type

OS:Surface,
  {916f77cf-3bf2-4dd2-a05c-5b3cc076dbe2}, !- Handle
  Roof1,                                  !- Name
  RoofCeiling,                            !- Surface Type
  {aac90bf1-915b-4917-9b54-646d453a89f5}, !- Construction Name
  {e14f9fee-f283-4599-9b73-1f3e32c70a90}, !- Space Name
  Outdoors,                               !- Outside Boundary Condition
  ,                                       !- Outside Boundary Condition Object
  SunExposed,                             !- Sun Exposure
  WindExposed,                            !- Wind Exposure
  ,                                       !- View Factor to Ground
  ,                                       !- Number of Vertices
  -26.9347048849634, 58.0557891618865, 2.4384, !- X,Y,Z Vertex 1 {m}
  -26.9347048849634, 46.7895631136661, 8.0715130241102, !- X,Y,Z Vertex 2 {m}
  -14.3386812381136, 46.7895631136661, 8.0715130241102, !- X,Y,Z Vertex 3 {m}
  -14.3386812381136, 58.0557891618865, 2.4384; !- X,Y,Z Vertex 4 {m}

OS:AdditionalProperties,
  {4429dad7-12cc-4e7f-bee7-64fb96623f94}, !- Handle
  {916f77cf-3bf2-4dd2-a05c-5b3cc076dbe2}, !- Object Name
  Length,                                 !- Feature Name 1
  Double,                                 !- Feature Data Type 1
  41.325536899113608,                     !- Feature Value 1
  Width,                                  !- Feature Name 2
  Double,                                 !- Feature Data Type 2
  41.325536899113601,                     !- Feature Value 2
  Azimuth,                                !- Feature Name 3
  Integer,                                !- Feature Data Type 3
  0,                                      !- Feature Value 3
  Tilt,                                   !- Feature Name 4
  Double,                                 !- Feature Data Type 4
  0.5,                                    !- Feature Value 4
  SurfaceType,                            !- Feature Name 5
  String,                                 !- Feature Data Type 5
  Roof;                                   !- Feature Value 5

OS:ThermalZone,
  {95060b56-120a-4bc9-8c2a-aeeb39bf28ac}, !- Handle
  attic - vented,                         !- Name
  1,                                      !- Multiplier
  ,                                       !- Ceiling Height {m}
  356.390921899745,                       !- Volume {m3}
  ,                                       !- Floor Area {m2}
  ,                                       !- Zone Inside Convection Algorithm
  ,                                       !- Zone Outside Convection Algorithm
  ,                                       !- Zone Conditioning Equipment List Name
  {68cecc95-79c7-4332-9a38-4576cb8a1905}, !- Zone Air Inlet Port List
  {16e5e7d5-9649-4d25-96e4-39d11cbc198f}, !- Zone Air Exhaust Port List
  {a4f0d4bf-2c9a-4e74-a5c3-31ea9f2b4691}, !- Zone Air Node Name
  {5afcb6a8-150d-41bf-86ee-fbf3db03e5f0}, !- Zone Return Air Port List
  ,                                       !- Primary Daylighting Control Name
  ,                                       !- Fraction of Zone Controlled by Primary Daylighting Control
  ,                                       !- Secondary Daylighting Control Name
  ,                                       !- Fraction of Zone Controlled by Secondary Daylighting Control
  ,                                       !- Illuminance Map Name
  ,                                       !- Group Rendering Name
  ,                                       !- Thermostat Name
  No;                                     !- Use Ideal Air Loads

OS:Node,
  {aca12155-8b89-4038-a2dd-cad950059276}, !- Handle
  Node 2,                                 !- Name
  {a4f0d4bf-2c9a-4e74-a5c3-31ea9f2b4691}, !- Inlet Port
  ;                                       !- Outlet Port

OS:Connection,
  {a4f0d4bf-2c9a-4e74-a5c3-31ea9f2b4691}, !- Handle
  {95060b56-120a-4bc9-8c2a-aeeb39bf28ac}, !- Source Object
  11,                                     !- Outlet Port
  {aca12155-8b89-4038-a2dd-cad950059276}, !- Target Object
  2;                                      !- Inlet Port

OS:PortList,
  {68cecc95-79c7-4332-9a38-4576cb8a1905}, !- Handle
  {95060b56-120a-4bc9-8c2a-aeeb39bf28ac}; !- HVAC Component

OS:PortList,
  {16e5e7d5-9649-4d25-96e4-39d11cbc198f}, !- Handle
  {95060b56-120a-4bc9-8c2a-aeeb39bf28ac}; !- HVAC Component

OS:PortList,
  {5afcb6a8-150d-41bf-86ee-fbf3db03e5f0}, !- Handle
  {95060b56-120a-4bc9-8c2a-aeeb39bf28ac}; !- HVAC Component

OS:Sizing:Zone,
  {67befa16-cc13-40d2-8224-ed21e445edfc}, !- Handle
  {95060b56-120a-4bc9-8c2a-aeeb39bf28ac}, !- Zone or ZoneList Name
  SupplyAirTemperature,                   !- Zone Cooling Design Supply Air Temperature Input Method
  14,                                     !- Zone Cooling Design Supply Air Temperature {C}
  11.11,                                  !- Zone Cooling Design Supply Air Temperature Difference {deltaC}
  SupplyAirTemperature,                   !- Zone Heating Design Supply Air Temperature Input Method
  40,                                     !- Zone Heating Design Supply Air Temperature {C}
  11.11,                                  !- Zone Heating Design Supply Air Temperature Difference {deltaC}
  0.0085,                                 !- Zone Cooling Design Supply Air Humidity Ratio {kg-H2O/kg-air}
  0.008,                                  !- Zone Heating Design Supply Air Humidity Ratio {kg-H2O/kg-air}
  ,                                       !- Zone Heating Sizing Factor
  ,                                       !- Zone Cooling Sizing Factor
  DesignDay,                              !- Cooling Design Air Flow Method
  ,                                       !- Cooling Design Air Flow Rate {m3/s}
  ,                                       !- Cooling Minimum Air Flow per Zone Floor Area {m3/s-m2}
  ,                                       !- Cooling Minimum Air Flow {m3/s}
  ,                                       !- Cooling Minimum Air Flow Fraction
  DesignDay,                              !- Heating Design Air Flow Method
  ,                                       !- Heating Design Air Flow Rate {m3/s}
  ,                                       !- Heating Maximum Air Flow per Zone Floor Area {m3/s-m2}
  ,                                       !- Heating Maximum Air Flow {m3/s}
  ,                                       !- Heating Maximum Air Flow Fraction
  No,                                     !- Account for Dedicated Outdoor Air System
  NeutralSupplyAir,                       !- Dedicated Outdoor Air System Control Strategy
  autosize,                               !- Dedicated Outdoor Air Low Setpoint Temperature for Design {C}
  autosize,                               !- Dedicated Outdoor Air High Setpoint Temperature for Design {C}
  Sensible Load Only No Latent Load,      !- Zone Load Sizing Method
  HumidityRatioDifference,                !- Zone Latent Cooling Design Supply Air Humidity Ratio Input Method
  ,                                       !- Zone Dehumidification Design Supply Air Humidity Ratio {kgWater/kgDryAir}
  0.005,                                  !- Zone Cooling Design Supply Air Humidity Ratio Difference {kgWater/kgDryAir}
  HumidityRatioDifference,                !- Zone Latent Heating Design Supply Air Humidity Ratio Input Method
  ,                                       !- Zone Humidification Design Supply Air Humidity Ratio {kgWater/kgDryAir}
  0.005,                                  !- Zone Humidification Design Supply Air Humidity Ratio Difference {kgWater/kgDryAir}
  ,                                       !- Zone Humidistat Dehumidification Set Point Schedule Name
  ,                                       !- Zone Humidistat Humidification Set Point Schedule Name
  ,                                       !- Design Zone Air Distribution Effectiveness in Cooling Mode
  ,                                       !- Design Zone Air Distribution Effectiveness in Heating Mode
  ,                                       !- Design Zone Secondary Recirculation Fraction {dimensionless}
  ,                                       !- Design Minimum Zone Ventilation Efficiency {dimensionless}
  Coincident;                             !- Sizing Option

OS:ZoneHVAC:EquipmentList,
  {7e32c38d-ce6c-4096-9f5a-85d9f42eff85}, !- Handle
  Zone HVAC Equipment List 2,             !- Name
  {95060b56-120a-4bc9-8c2a-aeeb39bf28ac}; !- Thermal Zone

OS:AdditionalProperties,
  {7a04d2c3-2bc1-4d9c-bf6b-14e1a2392e8f}, !- Handle
  {95060b56-120a-4bc9-8c2a-aeeb39bf28ac}, !- Object Name
  ObjectType,                             !- Feature Name 1
  String,                                 !- Feature Data Type 1
  attic - vented;                         !- Feature Value 1

OS:Space,
  {e14f9fee-f283-4599-9b73-1f3e32c70a90}, !- Handle
  attic - vented 1,                       !- Name
  ,                                       !- Space Type Name
  ,                                       !- Default Construction Set Name
  ,                                       !- Default Schedule Set Name
  ,                                       !- Direction of Relative North {deg}
  ,                                       !- X Origin {m}
  ,                                       !- Y Origin {m}
  ,                                       !- Z Origin {m}
  ,                                       !- Building Story Name
  {95060b56-120a-4bc9-8c2a-aeeb39bf28ac}, !- Thermal Zone Name
  ,                                       !- Part of Total Floor Area
  ,                                       !- Design Specification Outdoor Air Object Name
  ,                                       !- Building Unit Name
  356.390921899745;                       !- Volume {m3}

OS:Material,
  {b05f3582-50fa-4cda-8ff9-ff7f8b9882ca}, !- Handle
  asphalt or fiberglass shingles,         !- Name
  Rough,                                  !- Roughness
  0.00635,                                !- Thickness {m}
  0.162714,                               !- Conductivity {W/m-K}
  1121.4,                                 !- Density {kg/m3}
  1465.45,                                !- Specific Heat {J/kg-K}
  0.9,                                    !- Thermal Absorptance
  0.85,                                   !- Solar Absorptance