
OS:Version,
  {bbead71d-3935-489f-92c9-3e19468c5f39}, !- Handle
  3.9.0;                                  !- Version Identifier

OS:SimulationControl,
  {efe1c4fd-275f-4d37-8493-5f993609942d}, !- Handle
  ,                                       !- Do Zone Sizing Calculation
  ,                                       !- Do System Sizing Calculation
  ,                                       !- Do Plant Sizing Calculation
  No;                                     !- Run Simulation for Sizing Periods

OS:Timestep,
  {3d37eb8d-3425-4c8c-9868-1e90ba3a67dd}, !- Handle
  1;                                      !- Number of Timesteps per Hour

OS:ShadowCalculation,
  {85f9bdee-f52e-4f3d-80dd-2db38b17d19c}, !- Handle
  PolygonClipping,                        !- Shading Calculation Method
  ,                                       !- Shading Calculation Update Frequency Method
  20,                                     !- Shading Calculation Update Frequency
  200,                                    !- Maximum Figures in Shadow Overlap Calculations
  ,                                       !- Polygon Clipping Algorithm
  512,                                    !- Pixel Counting Resolution
  ,                                       !- Sky Diffuse Modeling Algorithm
  No,                                     !- Output External Shading Calculation Results
  No,                                     !- Disable Self-Shading Within Shading Zone Groups
  No;                                     !- Disable Self-Shading From Shading Zone Groups to Other Zones

OS:SurfaceConvectionAlgorithm:Outside,
  {1f892acb-2a8e-4853-97db-5e65c8a4c08b}, !- Handle
  DOE-2;                                  !- Algorithm

OS:SurfaceConvectionAlgorithm:Inside,
  {b5c4f52b-9d02-4b63-bbec-56c6b15efca9}, !- Handle
  TARP;                                   !- Algorithm

OS:ZoneCapacitanceMultiplier:ResearchSpecial,
  {730aacae-9d84-4579-b1cc-f38f016375d1}, !- Handle
  7,                                      !- Temperature Capacity Multiplier
  15,                                     !- Humidity Capacity Multiplier
  ;                                       !- Carbon Dioxide Capacity Multiplier

OS:ConvergenceLimits,
  {54e9d94d-6e50-4286-808b-f456a369b2a1}, !- Handle
  0;                                      !- Minimum System Timestep {minutes}

OS:RunPeriod,
  {19009b5f-9145-4c22-ab08-1f3905f897e0}, !- Handle
  Run Period 1,                           !- Name
  1,                                      !- Begin Month
  1,                                      !- Begin Day of Month
  12,                                     !- End Month
  31,                                     !- End Day of Month
  ,                                       !- Use Weather File Holidays and Special Days
  ,                                       !- Use Weather File Daylight Saving Period
  ,                                       !- Apply Weekend Holiday Rule
  ,                                       !- Use Weather File Rain Indicators
  ,                                       !- Use Weather File Snow Indicators
  ;                                       !- Number of Times Runperiod to be Repeated

OS:PerformancePrecisionTradeoffs,
  {95d5ec98-554e-4ec3-802f-848ba7a280c0}, !- Handle
  ,                                       !- Use Coil Direct Solutions
  CarrollMRT;                             !- Zone Radiant Exchange Algorithm

OS:WeatherFile,
  {fbcb095c-8d6b-4dc2-b2a9-369f67bf2e13}, !- Handle
  Buffalo Niagara Intl Ap,                !- City
  NY,                                     !- State Province Region
  USA,                                    !- Country
  TMY3,                                   !- Data Source
  725280,                                 !- WMO Number
  42.93,                                  !- Latitude {deg}
  -78.73,                                 !- Longitude {deg}
  -5,                                     !- Time Zone {hr}
  215,                                    !- Elevation {m}
  /Users/nmoore/github/urbanopt-example-geojson-project/example_project/weather/USA_NY_Buffalo-Greater.Buffalo.Intl.AP.725280_TMY3.epw, !- Url
  6B50E0FF,                               !- Checksum
  ,                                       !- Start Date Actual Year
  Sunday;                                 !- Start Day of Week

OS:YearDescription,
  {163f1bcc-56d7-405e-b74f-3010649b4042}, !- Handle
  2007,                                   !- Calendar Year
  ,                                       !- Day of Week for Start Day
  ;                                       !- Is Leap Year

OS:Site,
  {3d56ac7f-edb7-4694-8047-f9fe08ddce2f}, !- Handle
  Buffalo Niagara Intl Ap_NY,             !- Name
  42.93,                                  !- Latitude {deg}
  -78.73,                                 !- Longitude {deg}
  -5,                                     !- Time Zone {hr}
  215,                                    !- Elevation {m}
  Suburbs,                                !- Terrain
  Yes;                                    !- Keep Site Location Information

OS:RunPeriodControl:DaylightSavingTime,
  {0ac4835b-7d6b-4627-a241-cf330c494573}, !- Handle
  Mar 12,                                 !- Start Date
  Nov 5;                                  !- End Date

OS:Site:GroundTemperature:Shallow,
  {15414464-f81b-474d-9d3f-c8e86ec4a18a}, !- Handle
  4.30207395723828,                       !- January Surface Ground Temperature {C}
  2.29327249652502,                       !- February Surface Ground Temperature {C}
  2.13240047156047,                       !- March Surface Ground Temperature {C}
  3.08567940719286,                       !- April Surface Ground Temperature {C}
  6.91256312497526,                       !- May Surface Ground Temperature {C}
  10.7216195949507,                       !- June Surface Ground Temperature {C}
  14.0238679822574,                       !- July Surface Ground Temperature {C}
  16.1157611184724,                       !- August Surface Ground Temperature {C}
  16.2934789303462,                       !- September Surface Ground Temperature {C}
  14.5920754632847,                       !- October Surface Ground Temperature {C}
  11.374036348653,                        !- November Surface Ground Temperature {C}
  7.68182621661674;                       !- December Surface Ground Temperature {C}

OS:ThermalZone,
  {cd59de97-ee21-462c-94fb-9ecaba52308c}, !- Handle
  conditioned space,                      !- Name
  1,                                      !- Multiplier
  ,                                       !- Ceiling Height {m}
  692.06373070848,                        !- Volume {m3}
  ,                                       !- Floor Area {m2}
  ,                                       !- Zone Inside Convection Algorithm
  ,                                       !- Zone Outside Convection Algorithm
  ,                                       !- Zone Conditioning Equipment List Name
  {71cc2277-3c96-4638-83f7-801aeb793cc4}, !- Zone Air Inlet Port List
  {621cf577-eebd-49b4-9dbf-74857edc3d3e}, !- Zone Air Exhaust Port List
  {5dbbaa1e-d9c4-4107-9f24-22d2062afcaf}, !- Zone Air Node Name
  {a992103d-0fb3-46c6-b634-3afb3a967f10}, !- Zone Return Air Port List
  ,                                       !- Primary Daylighting Control Name
  ,                                       !- Fraction of Zone Controlled by Primary Daylighting Control
  ,                                       !- Secondary Daylighting Control Name
  ,                                       !- Fraction of Zone Controlled by Secondary Daylighting Control
  ,                                       !- Illuminance Map Name
  ,                                       !- Group Rendering Name
  {a8f85f9c-e41a-47c4-9fdc-3e947f7ba655}, !- Thermostat Name
  No;                                     !- Use Ideal Air Loads

OS:Node,
  {7a80bc01-05bc-4d90-8c34-0a5f1162b20c}, !- Handle
  Node 1,                                 !- Name
  {5dbbaa1e-d9c4-4107-9f24-22d2062afcaf}, !- Inlet Port
  ;                                       !- Outlet Port

OS:Connection,
  {5dbbaa1e-d9c4-4107-9f24-22d2062afcaf}, !- Handle
  {cd59de97-ee21-462c-94fb-9ecaba52308c}, !- Source Object
  11,                                     !- Outlet Port
  {7a80bc01-05bc-4d90-8c34-0a5f1162b20c}, !- Target Object
  2;                                      !- Inlet Port

OS:PortList,
  {71cc2277-3c96-4638-83f7-801aeb793cc4}, !- Handle
  {cd59de97-ee21-462c-94fb-9ecaba52308c}, !- HVAC Component
  {c7cc8198-127f-4888-acd5-bfb6c1a02e4d}; !- Port 1

OS:PortList,
  {621cf577-eebd-49b4-9dbf-74857edc3d3e}, !- Handle
  {cd59de97-ee21-462c-94fb-9ecaba52308c}; !- HVAC Component

OS:PortList,
  {a992103d-0fb3-46c6-b634-3afb3a967f10}, !- Handle
  {cd59de97-ee21-462c-94fb-9ecaba52308c}, !- HVAC Component
  {b02cb203-3c9b-4701-bedd-553ae95b71e8}; !- Port 1

OS:Sizing:Zone,
  {98903976-7079-47e2-9b77-7a9bca9205b6}, !- Handle
  {cd59de97-ee21-462c-94fb-9ecaba52308c}, !- Zone or ZoneList Name
  SupplyAirTemperature,                   !- Zone Cooling Design Supply Air Temperature Input Method
  14,                                     !- Zone Cooling Design Supply Air Temperature {C}
  11.11,                                  !- Zone Cooling Design Supply Air Temperature Difference {deltaC}
  SupplyAirTemperature,                   !- Zone Heating Design Supply Air Temperature Input Method
  40,                                     !- Zone Heating Design Supply Air Temperature {C}
  11.11,                                  !- Zone Heating Design Supply Air Temperature Difference {deltaC}
  0.0085,                                 !- Zone Cooling Design Supply Air Humidity Ratio {kg-H2O/kg-air}
  0.008,                                  !- Zone Heating Design Supply Air Humidity Ratio {kg-H2O/kg-air}
  ,                                       !- Zone Heating Sizing Factor
  ,                                       !- Zone Cooling Sizing Factor
  DesignDay,                              !- Cooling Design Air Flow Method
  ,                                       !- Cooling Design Air Flow Rate {m3/s}
  ,                                       !- Cooling Minimum Air Flow per Zone Floor Area {m3/s-m2}
  ,                                       !- Cooling Minimum Air Flow {m3/s}
  ,                                       !- Cooling Minimum Air Flow Fraction
  DesignDay,                              !- Heating Design Air Flow Method
  ,                                       !- Heating Design Air Flow Rate {m3/s}
  ,                                       !- Heating Maximum Air Flow per Zone Floor Area {m3/s-m2}
  ,                                       !- Heating Maximum Air Flow {m3/s}
  ,                                       !- Heating Maximum Air Flow Fraction
  No,                                     !- Account for Dedicated Outdoor Air System
  NeutralSupplyAir,                       !- Dedicated Outdoor Air System Control Strategy
  autosize,                               !- Dedicated Outdoor Air Low Setpoint Temperature for Design {C}
  autosize,                               !- Dedicated Outdoor Air High Setpoint Temperature for Design {C}
  Sensible Load Only No Latent Load,      !- Zone Load Sizing Method
  HumidityRatioDifference,                !- Zone Latent Cooling Design Supply Air Humidity Ratio Input Method
  ,                                       !- Zone Dehumidification Design Supply Air Humidity Ratio {kgWater/kgDryAir}
  0.005,                                  !- Zone Cooling Design Supply Air Humidity Ratio Difference {kgWater/kgDryAir}
  HumidityRatioDifference,                !- Zone Latent Heating Design Supply Air Humidity Ratio Input Method
  ,                                       !- Zone Humidification Design Supply Air Humidity Ratio {kgWater/kgDryAir}
  0.005,                                  !- Zone Humidification Design Supply Air Humidity Ratio Difference {kgWater/kgDryAir}
  ,                                       !- Zone Humidistat Dehumidification Set Point Schedule Name
  ,                                       !- Zone Humidistat Humidification Set Point Schedule Name
  ,                                       !- Design Zone Air Distribution Effectiveness in Cooling Mode
  ,                                       !- Design Zone Air Distribution Effectiveness in Heating Mode
  ,                                       !- Design Zone Secondary Recirculation Fraction {dimensionless}
  ,                                       !- Design Minimum Zone Ventilation Efficiency {dimensionless}
  Coincident;                             !- Sizing Option

OS:ZoneHVAC:EquipmentList,
  {5ac5eb7c-ab82-441b-a7b2-02a2123bde47}, !- Handle
  Zone HVAC Equipment List 1,             !- Name
  {cd59de97-ee21-462c-94fb-9ecaba52308c}, !- Thermal Zone
  ,                                       !- Load Distribution Scheme
  {8a7aeb03-27b7-4c30-91be-056d22d4610b}, !- Zone Equipment 1
  1,                                      !- Zone Equipment Cooling Sequence 1
  1,                                      !- Zone Equipment Heating or No-Load Sequence 1
  {e5cd1a39-36e2-4e0e-84c7-5843f180bca0}, !- Zone Equipment Sequential Cooling Fraction Schedule Name 1
  {50073a90-6b50-4017-a161-129a93001a6d}; !- Zone Equipment Sequential Heating Fraction Schedule Name 1

OS:AdditionalProperties,
  {20179031-aeaa-4294-a798-26dd9ea148de}, !- Handle
  {cd59de97-ee21-462c-94fb-9ecaba52308c}, !- Object Name
  ObjectType,                             !- Feature Name 1
  String,                                 !- Feature Data Type 1
  conditioned space;                      !- Feature Value 1

OS:Space,
  {37c80fe8-3869-4be0-bb0f-6a91ec144716}, !- Handle
  conditioned space 1,                    !- Name
  ,                                       !- Space Type Name
  ,                                       !- Default Construction Set Name
  ,                                       !- Default Schedule Set Name
  ,                                       !- Direction of Relative North {deg}
  ,                                       !- X Origin {m}
  ,                                       !- Y Origin {m}
  ,                                       !- Z Origin {m}
  ,                                       !- Building Story Name
  {cd59de97-ee21-462c-94fb-9ecaba52308c}, !- Thermal Zone Name
  ,                                       !- Part of Total Floor Area
  ,                                       !- Design Specification Outdoor Air Object Name
  ,                                       !- Building Unit Name
  692.06373070848;                        !- Volume {m3}

OS:Schedule:Ruleset,
  {f65df015-e488-4600-a53f-0df10de4c603}, !- Handle
  heating setpoint,                       !- Name
  {dcf71e5d-7cbc-43fe-956d-6cb33e1aa6b5}, !- Schedule Type Limits Name
  {40194d63-664c-4919-81e1-a3a8aa415b74}; !- Default Day Schedule Name

OS:Schedule:Day,
  {40194d63-664c-4919-81e1-a3a8aa415b74}, !- Handle
  heating setpoint default day,           !- Name
  {dcf71e5d-7cbc-43fe-956d-6cb33e1aa6b5}, !- Schedule Type Limits Name
  ,                                       !- Interpolate to Timestep
  24,                                     !- Hour 1
  0,                                      !- Minute 1
  0;                                      !- Value Until Time 1

OS:Schedule:Rule,
  {ce20dd1a-b142-47cc-8894-afd09b257b05}, !- Handle
  heating setpoint allday rule,           !- Name
  {f65df015-e488-4600-a53f-0df10de4c603}, !- Schedule Ruleset Name
  0,                                      !- Rule Order
  {2199e3cb-994a-4683-8878-7608e66d071c}, !- Day Schedule Name
  Yes,                                    !- Apply Sunday
  Yes,                                    !- Apply Monday
  Yes,                                    !- Apply Tuesday
  Yes,                                    !- Apply Wednesday
  Yes,                                    !- Apply Thursday
  Yes,                                    !- Apply Friday
  Yes,                                    !- Apply Saturday
  DateRange,                              !- Date Specification Type
  1,                                      !- Start Month
  1,                                      !- Start Day
  12,                                     !- End Month
  31;                                     !- End Day

OS:Schedule:Day,
  {2199e3cb-994a-4683-8878-7608e66d071c}, !- Handle
  heating setpoint day,                   !- Name
  {dcf71e5d-7cbc-43fe-956d-6cb33e1aa6b5}, !- Schedule Type Limits Name
  ,                                       !- Interpolate to Timestep
  24,                                     !- Hour 1
  0,                                      !- Minute 1
  20;                                     !- Value Until Time 1

OS:Schedule:Ruleset,
  {410a00e5-5a22-4880-88b0-31b684475938}, !- Handle
  cooling setpoint,                       !- Name
  {dcf71e5d-7cbc-43fe-956d-6cb33e1aa6b5}, !- Schedule Type Limits Name
  {33041117-209a-48b0-8954-7d22be0bafc7}; !- Default Day Schedule Name

OS:Schedule:Day,
  {33041117-209a-48b0-8954-7d22be0bafc7}, !- Handle
  cooling setpoint default day,           !- Name
  {dcf71e5d-7cbc-43fe-956d-6cb33e1aa6b5}, !- Schedule Type Limits Name
  ,                                       !- Interpolate to Timestep
  24,                                     !- Hour 1
  0,                                      !- Minute 1
  0;                                      !- Value Until Time 1

OS:Schedule:Rule,
  {4b6ead92-5df3-49e4-8774-c46df5489f4d}, !- Handle
  cooling setpoint allday rule,           !- Name
  {410a00e5-5a22-4880-88b0-31b684475938}, !- Schedule Ruleset Name
  0,                                      !- Rule Order
  {53c5d417-eec0-4806-ad19-181c7dae22b6}, !- Day Schedule Name
  Yes,                                    !- Apply Sunday
  Yes,                                    !- Apply Monday
  Yes,                                    !- Apply Tuesday
  Yes,                                    !- Apply Wednesday
  Yes,                                    !- Apply Thursday
  Yes,                                    !- Apply Friday
  Yes,                                    !- Apply Saturday
  DateRange,                              !- Date Specification Type
  1,                                      !- Start Month
  1,                                      !- Start Day
  12,                                     !- End Month
  31;                                     !- End Day

OS:Schedule:Day,
  {53c5d417-eec0-4806-ad19-181c7dae22b6}, !- Handle
  cooling setpoint day,                   !- Name
  {dcf71e5d-7cbc-43fe-956d-6cb33e1aa6b5}, !- Schedule Type Limits Name
  ,                                       !- Interpolate to Timestep
  24,                                     !- Hour 1
  0,                                      !- Minute 1
  25.5555555555556;                       !- Value Until Time 1

OS:ThermostatSetpoint:DualSetpoint,
  {a8f85f9c-e41a-47c4-9fdc-3e947f7ba655}, !- Handle
  conditioned space temperature setpoint, !- Name
  {f65df015-e488-4600-a53f-0df10de4c603}, !- Heating Setpoint Temperature Schedule Name
  {410a00e5-5a22-4880-88b0-31b684475938}, !- Cooling Setpoint Temperature Schedule Name
  0;                                      !- Temperature Difference Between Cutout And Setpoint {deltaC}

OS:ScheduleTypeLimits,
  {dcf71e5d-7cbc-43fe-956d-6cb33e1aa6b5}, !- Handle
  Temperature,                            !- Name
  ,                                       !- Lower Limit Value
  ,                                       !- Upper Limit Value
  Continuous,                             !- Numeric Type
  Temperature;                            !- Unit Type

OS:Surface,
  {8761c0f7-3352-4201-8ae5-9e7d2981201c}, !- Handle
  Roof1,                                  !- Name
  RoofCeiling,                            !- Surface Type
  {6fe6f07e-f662-44c0-9126-ebf40be77929}, !- Construction Name
  {37c80fe8-3869-4be0-bb0f-6a91ec144716}, !- Space Name
  Outdoors,                               !- Outside Boundary Condition
  ,                                       !- Outside Boundary Condition Object
  SunExposed,                             !- Sun Exposure
  WindExposed,                            !- Wind Exposure
  ,                                       !- View Factor to Ground
  ,                                       !- Number of Vertices
  -8.42346109387347, 8.42346109387347, 2.4384, !- X,Y,Z Vertex 1 {m}
  -8.42346109387347, -8.42346109387347, 2.4384, !- X,Y,Z Vertex 2 {m}
  8.42346109387347, -8.42346109387347, 2.4384, !- X,Y,Z Vertex 3 {m}
  8.42346109387347, 8.42346109387347, 2.4384; !- X,Y,Z Vertex 4 {m}

OS:AdditionalProperties,
  {ec3cdd52-0134-4d32-b439-ce2c6466cd4f}, !- Handle
  {8761c0f7-3352-4201-8ae5-9e7d2981201c}, !- Object Name
  Length,                                 !- Feature Name 1
  Double,                                 !- Feature Data Type 1
  55.27205442174192,                      !- Feature Value 1
  Width,                                  !- Feature Name 2
  Double,                                 !- Feature Data Type 2
  55.272054421741913,                     !- Feature Value 2
  Azimuth,                                !- Feature Name 3
  Integer,                                !- Feature Data Type 3
  0,                                      !- Feature Value 3
  Tilt,                                   !- Feature Name 4
  Double,                                 !- Feature Data Type 4
  0,                                      !- Feature Value 4
  SurfaceType,                            !- Feature Name 5
  String,                                 !- Feature Data Type 5
  Roof;                                   !- Feature Value 5

OS:Material,
  {03166075-4834-481f-9bf5-b5c3bc1a68a1}, !- Handle
  asphalt or fiberglass shingles,         !- Name
  Rough,                                  !- Roughness
  0.00635,                                !- Thickness {m}
  0.162714,                               !- Conductivity {W/m-K}
  1121.4,                                 !- Density {kg/m3}
  1465.45,                                !- Specific Heat {J/kg-K}
  0.9,                                    !- Thermal Absorptance
  0.85,                                   !- Solar Absorptance
  0.85;                                   !- Visible Absorptance

OS:Material,
  {2026d663-2eb0-44af-b691-62912eca9155}, !- Handle
  roof stud and cavity,                   !- Name
  Rough,                                  !- Roughness
  0.0889,                                 !- Thickness {m}
  0.491900632004487,                      !- Conductivity {W/m-K}
  50.32683,                               !- Density {kg/m3}
  1063.80987585548,                       !- Specific Heat {J/kg-K}
  0.9,                                    !- Thermal Absorptance
  0.7,                                    !- Solar Absorptance
  0.7;                                    !- Visible Absorptance

OS:Material,
  {fd0aafe6-3d1e-4e03-b0f8-0c2f7472aed7}, !- Handle
  gypsum board,                           !- Name
  Rough,                                  !- Roughness
  0.00254,                                !- Thickness {m}
  0.1602906,                              !- Conductivity {W/m-K}
  801,                                    !- Density {kg/m3}
  837.4,                                  !- Specific Heat {J/kg-K}
  0.9,                                    !- Thermal Absorptance
  0.6,                                    !- Solar Absorptance
  0.6;                                    !- Visible Absorptance

OS:Construction,
  {6fe6f07e-f662-44c0-9126-ebf40be77929}, !- Handle
  Roof1 construction,                     !- Name
  ,                                       !- Surface Rendering Name
  {03166075-4834-481f-9bf5-b5c3bc1a68a1}, !- Layer 1
  {2026d663-2eb0-44af-b691-62912eca9155}, !- Layer 2
  {fd0aafe6-3d1e-4e03-b0f8-0c2f7472aed7}; !- Layer 3

OS:Surface,
  {5588a272-ccef-4f81-a3c6-eb33b79eb6dc}, !- Handle
  Wall1,                                  !- Name
  Wall,                                   !- Surface Type
  {63ac2ea0-a227-4a9b-be87-4c761f8dfb38}, !- Construction Name
  {37c80fe8-3869-4be0-bb0f-6a91ec144716}, !- Space Name
  Outdoors,                               !- Outside Boundary Condition
  ,                                       !- Outside Boundary Condition Object
  SunExposed,                             !- Sun Exposure
  WindExposed,                            !- Wind Exposure
  ,                                       !- View Factor to Ground
  ,                                       !- Number of Vertices
  -50.3642317384615, 51.2932621384616, 0, !- X,Y,Z Vertex 1 {m}
  -50.3642317384615, 51.2932621384616, 2.4384, !- X,Y,Z Vertex 2 {m}
  -30.8303617384615, 51.2932621384616, 2.4384, !- X,Y,Z Vertex 3 {m}
  -30.8303617384615, 51.2932621384616, 0; !- X,Y,Z Vertex 4 {m}

OS:AdditionalProperties,
  {45651c5e-af90-4702-85ba-39097d744aa3}, !- Handle
  {5588a272-ccef-4f81-a3c6-eb33b79eb6dc}, !- Object Name
  Length,                                 !- Feature Name 1
  Double,                                 !- Feature Data Type 1
  64.087499999999991,                     !- Feature Value 1
  Azimuth,                                !- Feature Name 2
  Integer,                                !- Feature Data Type 2
  0,                                      !- Feature Value 2
  Tilt,                                   !- Feature Name 3
  Double,                                 !- Feature Data Type 3
  90,                                     !- Feature Value 3
  SurfaceType,                            !- Feature Name 4
  String,                                 !- Feature Data Type 4
  Wall;                                   !- Feature Value 4

OS:Material,
  {5560720a-d723-4f31-bebd-1c04d1e7c509}, !- Handle
  wood siding,                            !- Name
  Rough,                                  !- Roughness
  0.0254,                                 !- Thickness {m}
  0.1024175,                              !- Conductivity {W/m-K}
  544.68,                                 !- Density {kg/m3}
  1172.36,                                !- Specific Heat {J/kg-K}
  0.9,                                    !- Thermal Absorptance
  0.7,                                    !- Solar Absorptance
  0.7;                                    !- Visible Absorptance

OS:Material,
  {5c44348d-8643-4ee1-abf3-0c11806d2b2e}, !- Handle
  osb sheathing 0.5 in.,                  !- Name
  Rough,                                  !- Roughness
  0.0127,                                 !- Thickness {m}
  0.1154577,                              !- Conductivity {W/m-K}
  512.64,                                 !- Density {kg/m3}
  1214.23,                                !- Specific Heat {J/kg-K}
  0.9,                                    !- Thermal Absorptance
  0.7,                                    !- Solar Absorptance
  0.7;                                    !- Visible Absorptance

OS:Material,
  {63152202-741c-4bcf-9f37-ff92d17c2a80}, !- Handle
  wall stud and cavity,                   !- Name
  Rough,                                  !- Roughness
  0.1397,                                 !- Thickness {m}
  0.0929021674204099,                     !- Conductivity {W/m-K}
  139.0536,                               !- Density {kg/m3}
  1170.23755760369,                       !- Specific Heat {J/kg-K}
  0.9,                                    !- Thermal Absorptance
  0.7,                                    !- Solar Absorptance
  0.7;                                    !- Visible Absorptance

OS:Material,
  {3e235779-7896-402a-9dae-a9e74451e9f1}, !- Handle
  gypsum board 1,                         !- Name
  Rough,                                  !- Roughness
  0.0127,                                 !- Thickness {m}
  0.1602906,                              !- Conductivity {W/m-K}
  801,                                    !- Density {kg/m3}
  837.4,                                  !- Specific Heat {J/kg-K}
  0.9,                                    !- Thermal Absorptance
  0.6,                                    !- Solar Absorptance
  0.6;                                    !- Visible Absorptance

OS:Construction,
  {63ac2ea0-a227-4a9b-be87-4c761f8dfb38}, !- Handle
  Wall1 construction,                     !- Name
  ,                                       !- Surface Rendering Name
  {5560720a-d723-4f31-bebd-1c04d1e7c509}, !- Layer 1
  {5c44348d-8643-4ee1-abf3-0c11806d2b2e}, !- Layer 2
  {63152202-741c-4bcf-9f37-ff92d17c2a80}, !- Layer 3
  {3e235779-7896-402a-9dae-a9e74451e9f1}; !- Layer 4

OS:Surface,
  {9814fa24-89dd-4cc5-ac44-163d7e34d488}, !- Handle
  Wall2,                                  !- Name
  Wall,                                   !- Surface Type
  {e595f8e1-2cc3-45e2-a85e-d77749b19132}, !- Construction Name
  {37c80fe8-3869-4be0-bb0f-6a91ec144716}, !- Space Name
  Outdoors,                               !- Outside Boundary Condition
  ,                                       !- Outside Boundary Condition Object
  SunExposed,                             !- Sun Exposure
  WindExposed,                            !- Wind Exposure
  ,                                       !- View Factor to Ground
  ,                                       !- Number of Vertices
  51.2932621384616, -36.1953302, 0,       !- X,Y,Z Vertex 1 {m}
  51.2932621384616, -36.1953302, 2.4384,  !- X,Y,Z Vertex 2 {m}
  51.2932621384616, -45.9641702, 2.4384,  !- X,Y,Z Vertex 3 {m}
  51.2932621384616, -45.9641702, 0;       !- X,Y,Z Vertex 4 {m}

OS:AdditionalProperties,
  {2e499225-7e66-4955-85d2-4ea151ad6536}, !- Handle
  {9814fa24-89dd-4cc5-ac44-163d7e34d488}, !- Object Name
  Length,                                 !- Feature Name 1
  Double,                                 !- Feature Data Type 1
  32.049999999999997,                     !- Feature Value 1
  Azimuth,                                !- Feature Name 2