
OS:Version,
  {6b25889c-1a5b-45b5-9f3e-c282dc208c1e}, !- Handle
  3.10.0;                                 !- Version Identifier

OS:SimulationControl,
  {60222ad8-7ed6-4062-a408-9f4c2991b330}, !- Handle
  ,                                       !- Do Zone Sizing Calculation
  ,                                       !- Do System Sizing Calculation
  ,                                       !- Do Plant Sizing Calculation
  No;                                     !- Run Simulation for Sizing Periods

OS:Timestep,
  {046b284b-7301-4798-91bf-01ace4a1c258}, !- Handle
  1;                                      !- Number of Timesteps per Hour

OS:ShadowCalculation,
  {096b364d-1829-4465-a1f0-f4e25c18a6e3}, !- Handle
  PolygonClipping,                        !- Shading Calculation Method
  ,                                       !- Shading Calculation Update Frequency Method
  20,                                     !- Shading Calculation Update Frequency
  200,                                    !- Maximum Figures in Shadow Overlap Calculations
  ,                                       !- Polygon Clipping Algorithm
  512,                                    !- Pixel Counting Resolution
  ,                                       !- Sky Diffuse Modeling Algorithm
  No,                                     !- Output External Shading Calculation Results
  No,                                     !- Disable Self-Shading Within Shading Zone Groups
  No;                                     !- Disable Self-Shading From Shading Zone Groups to Other Zones

OS:SurfaceConvectionAlgorithm:Outside,
  {40f6ecc9-f120-4622-b75a-37312c32b8a1}, !- Handle
  DOE-2;                                  !- Algorithm

OS:SurfaceConvectionAlgorithm:Inside,
  {3a8605c5-8e07-42f0-93ae-0cfc7dfa3d48}, !- Handle
  TARP;                                   !- Algorithm

OS:ZoneCapacitanceMultiplier:ResearchSpecial,
  {695b0a3d-8894-4c2a-8f57-ccf452e3e940}, !- Handle
  7,                                      !- Temperature Capacity Multiplier
  15,                                     !- Humidity Capacity Multiplier
  ;                                       !- Carbon Dioxide Capacity Multiplier

OS:ConvergenceLimits,
  {f31c9932-dbbd-4bb7-90d1-af9b9a4ccb1f}, !- Handle
  0;                                      !- Minimum System Timestep {minutes}

OS:RunPeriod,
  {7dcba11b-4b61-49f4-8741-1731e531f24d}, !- Handle
  Run Period 1,                           !- Name
  1,                                      !- Begin Month
  1,                                      !- Begin Day of Month
  12,                                     !- End Month
  31,                                     !- End Day of Month
  ,                                       !- Use Weather File Holidays and Special Days
  ,                                       !- Use Weather File Daylight Saving Period
  ,                                       !- Apply Weekend Holiday Rule
  ,                                       !- Use Weather File Rain Indicators
  ,                                       !- Use Weather File Snow Indicators
  ;                                       !- Number of Times Runperiod to be Repeated

OS:PerformancePrecisionTradeoffs,
  {e127ebc4-fe89-411a-9771-8948bbf0de79}, !- Handle
  ,                                       !- Use Coil Direct Solutions
  CarrollMRT;                             !- Zone Radiant Exchange Algorithm

OS:WeatherFile,
  {ca5ef534-a8b7-431a-8753-10520b1cc464}, !- Handle
  Buffalo Niagara Intl Ap,                !- City
  NY,                                     !- State Province Region
  USA,                                    !- Country
  TMY3,                                   !- Data Source
  725280,                                 !- WMO Number
  42.93,                                  !- Latitude {deg}
  -78.73,                                 !- Longitude {deg}
  -5,                                     !- Time Zone {hr}
  215,                                    !- Elevation {m}
  /Users/nmoore/github/urbanopt-example-geojson-project/example_project/weather/USA_NY_Buffalo-Greater.Buffalo.Intl.AP.725280_TMY3.epw, !- Url
  6B50E0FF,                               !- Checksum
  ,                                       !- Start Date Actual Year
  Sunday;                                 !- Start Day of Week

OS:YearDescription,
  {73b1b177-657e-4f16-8267-5304ab81017e}, !- Handle
  2007,                                   !- Calendar Year
  ,                                       !- Day of Week for Start Day
  ;                                       !- Is Leap Year

OS:Site,
  {6d59a8b0-3c4a-4055-9f98-4d625a311e39}, !- Handle
  Buffalo Niagara Intl Ap_NY,             !- Name
  42.93,                                  !- Latitude {deg}
  -78.73,                                 !- Longitude {deg}
  -5,                                     !- Time Zone {hr}
  215,                                    !- Elevation {m}
  Suburbs,                                !- Terrain
  Yes;                                    !- Keep Site Location Information

OS:RunPeriodControl:DaylightSavingTime,
  {2430ffe8-319b-4f9f-b879-ae52940d1c78}, !- Handle
  Mar 12,                                 !- Start Date
  Nov 5;                                  !- End Date

OS:Site:GroundTemperature:Shallow,
  {b18ef280-a731-410e-b387-a273d54cb837}, !- Handle
  4.30207395723828,                       !- January Surface Ground Temperature {C}
  2.29327249652502,                       !- February Surface Ground Temperature {C}
  2.13240047156047,                       !- March Surface Ground Temperature {C}
  3.08567940719286,                       !- April Surface Ground Temperature {C}
  6.91256312497526,                       !- May Surface Ground Temperature {C}
  10.7216195949507,                       !- June Surface Ground Temperature {C}
  14.0238679822574,                       !- July Surface Ground Temperature {C}
  16.1157611184724,                       !- August Surface Ground Temperature {C}
  16.2934789303462,                       !- September Surface Ground Temperature {C}
  14.5920754632847,                       !- October Surface Ground Temperature {C}
  11.374036348653,                        !- November Surface Ground Temperature {C}
  7.68182621661674;                       !- December Surface Ground Temperature {C}

OS:ThermalZone,
  {44ba6749-c070-44f3-be66-d4df7b629241}, !- Handle
  conditioned space,                      !- Name
  1,                                      !- Multiplier
  ,                                       !- Ceiling Height {m}
  692.06373070848,                        !- Volume {m3}
  ,                                       !- Floor Area {m2}
  ,                                       !- Zone Inside Convection Algorithm
  ,                                       !- Zone Outside Convection Algorithm
  ,                                       !- Zone Conditioning Equipment List Name
  {9dbcf5d2-4d61-48d0-9b63-1f66e52cbb7b}, !- Zone Air Inlet Port List
  {083c47c6-dd04-43e0-9607-5ef05cdf64e8}, !- Zone Air Exhaust Port List
  {2e327550-b19a-4ef9-a59c-2f98d783fbe2}, !- Zone Air Node Name
  {fe9797ee-86c4-4fdf-a4f3-d65185765f91}, !- Zone Return Air Port List
  ,                                       !- Primary Daylighting Control Name
  ,                                       !- Fraction of Zone Controlled by Primary Daylighting Control
  ,                                       !- Secondary Daylighting Control Name
  ,                                       !- Fraction of Zone Controlled by Secondary Daylighting Control
  ,                                       !- Illuminance Map Name
  ,                                       !- Group Rendering Name
  {09541308-b6e8-42b3-8ba2-1d8b2a04c675}, !- Thermostat Name
  No;                                     !- Use Ideal Air Loads

OS:Node,
  {a4b19c3b-31b7-49a2-9b9f-b38991c8a13a}, !- Handle
  Node 1,                                 !- Name
  {2e327550-b19a-4ef9-a59c-2f98d783fbe2}, !- Inlet Port
  ;                                       !- Outlet Port

OS:Connection,
  {2e327550-b19a-4ef9-a59c-2f98d783fbe2}, !- Handle
  {44ba6749-c070-44f3-be66-d4df7b629241}, !- Source Object
  11,                                     !- Outlet Port
  {a4b19c3b-31b7-49a2-9b9f-b38991c8a13a}, !- Target Object
  2;                                      !- Inlet Port

OS:PortList,
  {9dbcf5d2-4d61-48d0-9b63-1f66e52cbb7b}, !- Handle
  {44ba6749-c070-44f3-be66-d4df7b629241}, !- HVAC Component
  {d27dc3f8-5ea4-4a5e-a519-fb40896ee3f5}; !- Port 1

OS:PortList,
  {083c47c6-dd04-43e0-9607-5ef05cdf64e8}, !- Handle
  {44ba6749-c070-44f3-be66-d4df7b629241}; !- HVAC Component

OS:PortList,
  {fe9797ee-86c4-4fdf-a4f3-d65185765f91}, !- Handle
  {44ba6749-c070-44f3-be66-d4df7b629241}, !- HVAC Component
  {344cf10a-0eca-4c9d-b018-45da643df21c}; !- Port 1

OS:Sizing:Zone,
  {c0529123-13d5-44bd-b664-bd680bb8879c}, !- Handle
  {44ba6749-c070-44f3-be66-d4df7b629241}, !- Zone or ZoneList Name
  SupplyAirTemperature,                   !- Zone Cooling Design Supply Air Temperature Input Method
  14,                                     !- Zone Cooling Design Supply Air Temperature {C}
  11.11,                                  !- Zone Cooling Design Supply Air Temperature Difference {deltaC}
  SupplyAirTemperature,                   !- Zone Heating Design Supply Air Temperature Input Method
  40,                                     !- Zone Heating Design Supply Air Temperature {C}
  11.11,                                  !- Zone Heating Design Supply Air Temperature Difference {deltaC}
  0.0085,                                 !- Zone Cooling Design Supply Air Humidity Ratio {kg-H2O/kg-air}
  0.008,                                  !- Zone Heating Design Supply Air Humidity Ratio {kg-H2O/kg-air}
  ,                                       !- Zone Heating Sizing Factor
  ,                                       !- Zone Cooling Sizing Factor
  DesignDay,                              !- Cooling Design Air Flow Method
  ,                                       !- Cooling Design Air Flow Rate {m3/s}
  ,                                       !- Cooling Minimum Air Flow per Zone Floor Area {m3/s-m2}
  ,                                       !- Cooling Minimum Air Flow {m3/s}
  ,                                       !- Cooling Minimum Air Flow Fraction
  DesignDay,                              !- Heating Design Air Flow Method
  ,                                       !- Heating Design Air Flow Rate {m3/s}
  ,                                       !- Heating Maximum Air Flow per Zone Floor Area {m3/s-m2}
  ,                                       !- Heating Maximum Air Flow {m3/s}
  ,                                       !- Heating Maximum Air Flow Fraction
  No,                                     !- Account for Dedicated Outdoor Air System
  NeutralSupplyAir,                       !- Dedicated Outdoor Air System Control Strategy
  autosize,                               !- Dedicated Outdoor Air Low Setpoint Temperature for Design {C}
  autosize,                               !- Dedicated Outdoor Air High Setpoint Temperature for Design {C}
  Sensible Load Only No Latent Load,      !- Zone Load Sizing Method
  HumidityRatioDifference,                !- Zone Latent Cooling Design Supply Air Humidity Ratio Input Method
  ,                                       !- Zone Dehumidification Design Supply Air Humidity Ratio {kgWater/kgDryAir}
  0.005,                                  !- Zone Cooling Design Supply Air Humidity Ratio Difference {kgWater/kgDryAir}
  HumidityRatioDifference,                !- Zone Latent Heating Design Supply Air Humidity Ratio Input Method
  ,                                       !- Zone Humidification Design Supply Air Humidity Ratio {kgWater/kgDryAir}
  0.005,                                  !- Zone Humidification Design Supply Air Humidity Ratio Difference {kgWater/kgDryAir}
  ,                                       !- Zone Humidistat Dehumidification Set Point Schedule Name
  ,                                       !- Zone Humidistat Humidification Set Point Schedule Name
  ,                                       !- Design Zone Air Distribution Effectiveness in Cooling Mode
  ,                                       !- Design Zone Air Distribution Effectiveness in Heating Mode
  ,                                       !- Design Zone Secondary Recirculation Fraction {dimensionless}
  ,                                       !- Design Minimum Zone Ventilation Efficiency {dimensionless}
  Coincident;                             !- Sizing Option

OS:ZoneHVAC:EquipmentList,
  {e264abf2-890a-4627-8ade-db5f4d8c217c}, !- Handle
  Zone HVAC Equipment List 1,             !- Name
  {44ba6749-c070-44f3-be66-d4df7b629241}, !- Thermal Zone
  ,                                       !- Load Distribution Scheme
  {2bbd53c6-d2e4-4e19-8b76-1d156b6f59f3}, !- Zone Equipment 1
  1,                                      !- Zone Equipment Cooling Sequence 1
  1,                                      !- Zone Equipment Heating or No-Load Sequence 1
  {2ef846d6-3fe9-4d95-8793-00506d4467d0}, !- Zone Equipment Sequential Cooling Fraction Schedule Name 1
  {f074c129-c313-485e-a780-f4449e92c03c}; !- Zone Equipment Sequential Heating Fraction Schedule Name 1

OS:AdditionalProperties,
  {43e3b53a-5436-42e1-a75c-3cbfbeef77fa}, !- Handle
  {44ba6749-c070-44f3-be66-d4df7b629241}, !- Object Name
  ObjectType,                             !- Feature Name 1
  String,                                 !- Feature Data Type 1
  conditioned space;                      !- Feature Value 1

OS:Space,
  {1e7cb098-d6b5-4833-9ebf-7477e9ba8463}, !- Handle
  conditioned space 1,                    !- Name
  ,                                       !- Space Type Name
  ,                                       !- Default Construction Set Name
  ,                                       !- Default Schedule Set Name
  ,                                       !- Direction of Relative North {deg}
  ,                                       !- X Origin {m}
  ,                                       !- Y Origin {m}
  ,                                       !- Z Origin {m}
  ,                                       !- Building Story Name
  {44ba6749-c070-44f3-be66-d4df7b629241}, !- Thermal Zone Name
  ,                                       !- Part of Total Floor Area
  ,                                       !- Design Specification Outdoor Air Object Name
  ,                                       !- Building Unit Name
  692.06373070848;                        !- Volume {m3}

OS:Schedule:Ruleset,
  {0258f8a1-4695-40b6-9471-d85ea6a5d2c1}, !- Handle
  heating setpoint,                       !- Name
  {2b86ee54-6d65-4036-b367-c4e11db0787f}, !- Schedule Type Limits Name
  {4e0cab28-6975-4c59-b2e8-93f281a49432}; !- Default Day Schedule Name

OS:Schedule:Day,
  {4e0cab28-6975-4c59-b2e8-93f281a49432}, !- Handle
  heating setpoint default day,           !- Name
  {2b86ee54-6d65-4036-b367-c4e11db0787f}, !- Schedule Type Limits Name
  ,                                       !- Interpolate to Timestep
  24,                                     !- Hour 1
  0,                                      !- Minute 1
  0;                                      !- Value Until Time 1

OS:Schedule:Rule,
  {97de2e81-2354-4713-8d7c-afd27e2b0e1c}, !- Handle
  heating setpoint allday rule,           !- Name
  {0258f8a1-4695-40b6-9471-d85ea6a5d2c1}, !- Schedule Ruleset Name
  0,                                      !- Rule Order
  {7682868d-9119-46bc-87a5-5bebc1ee54f4}, !- Day Schedule Name
  Yes,                                    !- Apply Sunday
  Yes,                                    !- Apply Monday
  Yes,                                    !- Apply Tuesday
  Yes,                                    !- Apply Wednesday
  Yes,                                    !- Apply Thursday
  Yes,                                    !- Apply Friday
  Yes,                                    !- Apply Saturday
  DateRange,                              !- Date Specification Type
  1,                                      !- Start Month
  1,                                      !- Start Day
  12,                                     !- End Month
  31;                                     !- End Day

OS:Schedule:Day,
  {7682868d-9119-46bc-87a5-5bebc1ee54f4}, !- Handle
  heating setpoint day,                   !- Name
  {2b86ee54-6d65-4036-b367-c4e11db0787f}, !- Schedule Type Limits Name
  ,                                       !- Interpolate to Timestep
  24,                                     !- Hour 1
  0,                                      !- Minute 1
  20;                                     !- Value Until Time 1

OS:Schedule:Ruleset,
  {5468bb4c-87b7-4f49-82ff-962bd07de4cc}, !- Handle
  cooling setpoint,                       !- Name
  {2b86ee54-6d65-4036-b367-c4e11db0787f}, !- Schedule Type Limits Name
  {b882321f-a6d9-4704-ac45-a8fbea126591}; !- Default Day Schedule Name

OS:Schedule:Day,
  {b882321f-a6d9-4704-ac45-a8fbea126591}, !- Handle
  cooling setpoint default day,           !- Name
  {2b86ee54-6d65-4036-b367-c4e11db0787f}, !- Schedule Type Limits Name
  ,                                       !- Interpolate to Timestep
  24,                                     !- Hour 1
  0,                                      !- Minute 1
  0;                                      !- Value Until Time 1

OS:Schedule:Rule,
  {62ea61f3-a0c6-4da9-b070-9a191defb269}, !- Handle
  cooling setpoint allday rule,           !- Name
  {5468bb4c-87b7-4f49-82ff-962bd07de4cc}, !- Schedule Ruleset Name
  0,                                      !- Rule Order
  {d8dbc4d9-404e-41f8-a9c0-0f7b9f5be8fb}, !- Day Schedule Name
  Yes,                                    !- Apply Sunday
  Yes,                                    !- Apply Monday
  Yes,                                    !- Apply Tuesday
  Yes,                                    !- Apply Wednesday
  Yes,                                    !- Apply Thursday
  Yes,                                    !- Apply Friday
  Yes,                                    !- Apply Saturday
  DateRange,                              !- Date Specification Type
  1,                                      !- Start Month
  1,                                      !- Start Day
  12,                                     !- End Month
  31;                                     !- End Day

OS:Schedule:Day,
  {d8dbc4d9-404e-41f8-a9c0-0f7b9f5be8fb}, !- Handle
  cooling setpoint day,                   !- Name
  {2b86ee54-6d65-4036-b367-c4e11db0787f}, !- Schedule Type Limits Name
  ,                                       !- Interpolate to Timestep
  24,                                     !- Hour 1
  0,                                      !- Minute 1
  25.5555555555556;                       !- Value Until Time 1

OS:ThermostatSetpoint:DualSetpoint,
  {09541308-b6e8-42b3-8ba2-1d8b2a04c675}, !- Handle
  conditioned space temperature setpoint, !- Name
  {0258f8a1-4695-40b6-9471-d85ea6a5d2c1}, !- Heating Setpoint Temperature Schedule Name
  {5468bb4c-87b7-4f49-82ff-962bd07de4cc}, !- Cooling Setpoint Temperature Schedule Name
  0;                                      !- Temperature Difference Between Cutout And Setpoint {deltaC}

OS:ScheduleTypeLimits,
  {2b86ee54-6d65-4036-b367-c4e11db0787f}, !- Handle
  Temperature,                            !- Name
  ,                                       !- Lower Limit Value
  ,                                       !- Upper Limit Value
  Continuous,                             !- Numeric Type
  Temperature;                            !- Unit Type

OS:Surface,
  {c2ea5df5-d37b-45bb-b6f8-a46494f4c37d}, !- Handle
  Roof1,                                  !- Name
  RoofCeiling,                            !- Surface Type
  {cbfc4ad0-b528-4843-a285-c18290679cc1}, !- Construction Name
  {1e7cb098-d6b5-4833-9ebf-7477e9ba8463}, !- Space Name
  Outdoors,                               !- Outside Boundary Condition
  ,                                       !- Outside Boundary Condition Object
  SunExposed,                             !- Sun Exposure
  WindExposed,                            !- Wind Exposure
  ,                                       !- View Factor to Ground
  ,                                       !- Number of Vertices
  -8.42346109387347, 8.42346109387347, 2.4384, !- X,Y,Z Vertex 1 {m}
  -8.42346109387347, -8.42346109387347, 2.4384, !- X,Y,Z Vertex 2 {m}
  8.42346109387347, -8.42346109387347, 2.4384, !- X,Y,Z Vertex 3 {m}
  8.42346109387347, 8.42346109387347, 2.4384; !- X,Y,Z Vertex 4 {m}

OS:AdditionalProperties,
  {f9f30bea-be6c-4b46-b752-deb180356860}, !- Handle
  {c2ea5df5-d37b-45bb-b6f8-a46494f4c37d}, !- Object Name
  Length,                                 !- Feature Name 1
  Double,                                 !- Feature Data Type 1
  55.27205442174192,                      !- Feature Value 1
  Width,                                  !- Feature Name 2
  Double,                                 !- Feature Data Type 2
  55.272054421741913,                     !- Feature Value 2
  Azimuth,                                !- Feature Name 3
  Integer,                                !- Feature Data Type 3
  0,                                      !- Feature Value 3
  Tilt,                                   !- Feature Name 4
  Double,                                 !- Feature Data Type 4
  0,                                      !- Feature Value 4
  SurfaceType,                            !- Feature Name 5
  String,                                 !- Feature Data Type 5
  Roof;                                   !- Feature Value 5

OS:Material,
  {a6fd68a4-335d-4153-a1aa-a97feff464b6}, !- Handle
  asphalt or fiberglass shingles,         !- Name
  Rough,                                  !- Roughness
  0.00635,                                !- Thickness {m}
  0.162714,                               !- Conductivity {W/m-K}
  1121.4,                                 !- Density {kg/m3}
  1465.45,                                !- Specific Heat {J/kg-K}
  0.9,                                    !- Thermal Absorptance
  0.85,                                   !- Solar Absorptance
  0.85;                                   !- Visible Absorptance

OS:Material,
  {52fd3ab9-2c17-4424-9075-8d344794bc23}, !- Handle
  roof stud and cavity,                   !- Name
  Rough,                                  !- Roughness
  0.0889,                                 !- Thickness {m}
  0.491900632004487,                      !- Conductivity {W/m-K}
  50.32683,                               !- Density {kg/m3}
  1063.80987585548,                       !- Specific Heat {J/kg-K}
  0.9,                                    !- Thermal Absorptance
  0.7,                                    !- Solar Absorptance
  0.7;                                    !- Visible Absorptance

OS:Material,
  {d25fb563-c86a-463c-bcaf-eb00157cede9}, !- Handle
  gypsum board,                           !- Name
  Rough,                                  !- Roughness
  0.00254,                                !- Thickness {m}
  0.1602906,                              !- Conductivity {W/m-K}
  801,                                    !- Density {kg/m3}
  837.4,                                  !- Specific Heat {J/kg-K}
  0.9,                                    !- Thermal Absorptance
  0.6,                                    !- Solar Absorptance
  0.6;                                    !- Visible Absorptance

OS:Construction,
  {cbfc4ad0-b528-4843-a285-c18290679cc1}, !- Handle
  Roof1 construction,                     !- Name
  ,                                       !- Surface Rendering Name
  {a6fd68a4-335d-4153-a1aa-a97feff464b6}, !- Layer 1
  {52fd3ab9-2c17-4424-9075-8d344794bc23}, !- Layer 2
  {d25fb563-c86a-463c-bcaf-eb00157cede9}; !- Layer 3

OS:Surface,
  {57425970-7134-4d97-90aa-de8d0134d38d}, !- Handle
  Wall1,                                  !- Name
  Wall,                                   !- Surface Type
  {4b35c485-fa94-4084-bf6f-b1d04233f07d}, !- Construction Name
  {1e7cb098-d6b5-4833-9ebf-7477e9ba8463}, !- Space Name
  Outdoors,                               !- Outside Boundary Condition
  ,                                       !- Outside Boundary Condition Object
  SunExposed,                             !- Sun Exposure
  WindExposed,                            !- Wind Exposure
  ,                                       !- View Factor to Ground
  ,                                       !- Number of Vertices
  -50.3642317384615, 51.2932621384616, 0, !- X,Y,Z Vertex 1 {m}
  -50.3642317384615, 51.2932621384616, 2.4384, !- X,Y,Z Vertex 2 {m}
  -30.8303617384615, 51.2932621384616, 2.4384, !- X,Y,Z Vertex 3 {m}
  -30.8303617384615, 51.2932621384616, 0; !- X,Y,Z Vertex 4 {m}

OS:AdditionalProperties,
  {e487141a-390d-4b33-9b9c-10ee1d2907d7}, !- Handle
  {57425970-7134-4d97-90aa-de8d0134d38d}, !- Object Name
  Length,                                 !- Feature Name 1
  Double,                                 !- Feature Data Type 1
  64.087499999999991,                     !- Feature Value 1
  Azimuth,                                !- Feature Name 2
  Integer,                                !- Feature Data Type 2
  0,                                      !- Feature Value 2
  Tilt,                                   !- Feature Name 3
  Double,                                 !- Feature Data Type 3
  90,                                     !- Feature Value 3
  SurfaceType,                            !- Feature Name 4
  String,                                 !- Feature Data Type 4
  Wall;                                   !- Feature Value 4

OS:Material,
  {edc49836-8f73-4b8e-8697-45227026e7c8}, !- Handle
  wood siding,                            !- Name
  Rough,                                  !- Roughness
  0.0254,                                 !- Thickness {m}
  0.1024175,                              !- Conductivity {W/m-K}
  544.68,                                 !- Density {kg/m3}
  1172.36,                                !- Specific Heat {J/kg-K}
  0.9,                                    !- Thermal Absorptance
  0.7,                                    !- Solar Absorptance
  0.7;                                    !- Visible Absorptance

OS:Material,
  {8784d726-510f-4a8e-b1ff-4ebaaef59644}, !- Handle
  osb sheathing 0.5 in.,                  !- Name
  Rough,                                  !- Roughness
  0.0127,                                 !- Thickness {m}
  0.1154577,                              !- Conductivity {W/m-K}
  512.64,                                 !- Density {kg/m3}
  1214.23,                                !- Specific Heat {J/kg-K}
  0.9,                                    !- Thermal Absorptance
  0.7,                                    !- Solar Absorptance
  0.7;                                    !- Visible Absorptance

OS:Material,
  {090ec1b2-adda-4422-b652-5d73dc69adc8}, !- Handle
  wall stud and cavity,                   !- Name
  Rough,                                  !- Roughness
  0.1397,                                 !- Thickness {m}
  0.0929021674204099,                     !- Conductivity {W/m-K}
  139.0536,                               !- Density {kg/m3}
  1170.23755760369,                       !- Specific Heat {J/kg-K}
  0.9,                                    !- Thermal Absorptance
  0.7,                                    !- Solar Absorptance
  0.7;                                    !- Visible Absorptance

OS:Material,
  {a8f8139d-fca3-4054-a4f3-9540e76ab597}, !- Handle
  gypsum board 1,                         !- Name
  Rough,                                  !- Roughness
  0.0127,                                 !- Thickness {m}
  0.1602906,                              !- Conductivity {W/m-K}
  801,                                    !- Density {kg/m3}
  837.4,                                  !- Specific Heat {J/kg-K}
  0.9,                                    !- Thermal Absorptance
  0.6,                                    !- Solar Absorptance
  0.6;                                    !- Visible Absorptance

OS:Construction,
  {4b35c485-fa94-4084-bf6f-b1d04233f07d}, !- Handle
  Wall1 construction,                     !- Name
  ,                                       !- Surface Rendering Name
  {edc49836-8f73-4b8e-8697-45227026e7c8}, !- Layer 1
  {8784d726-510f-4a8e-b1ff-4ebaaef59644}, !- Layer 2
  {090ec1b2-adda-4422-b652-5d73dc69adc8}, !- Layer 3
  {a8f8139d-fca3-4054-a4f3-9540e76ab597}; !- Layer 4

OS:Surface,
  {4bb62183-f404-499c-9a0d-54957ac69b4a}, !- Handle
  Wall2,                                  !- Name
  Wall,                                   !- Surface Type
  {b3f0f3b5-572c-4d1c-8d4d-ee956eb729cb}, !- Construction Name
  {1e7cb098-d6b5-4833-9ebf-7477e9ba8463}, !- Space Name
  Outdoors,                               !- Outside Boundary Condition
  ,                                       !- Outside Boundary Condition Object
  SunExposed,                             !- Sun Exposure
  WindExposed,                            !- Wind Exposure
  ,                                       !- View Factor to Ground
  ,                                       !- Number of Vertices
  51.2932621384616, -36.1953302, 0,       !- X,Y,Z Vertex 1 {m}
  51.2932621384616, -36.1953302, 2.4384,  !- X,Y,Z Vertex 2 {m}
  51.2932621384616, -45.9641702, 2.4384,  !- X,Y,Z Vertex 3 {m}
  51.2932621384616, -45.9641702, 0;       !- X,Y,Z Vertex 4 {m}

OS:AdditionalProperties,
  {c6313070-6f79-4e57-8a13-549832cb5492}, !- Handle
  {4bb62183-f404-499c-9a0d-54957ac69b4a}, !- Object Name
  Length,                                 !- Feature Name 1
  Double,                                 !- Feature Data Type 1
  32.049999999999997,                     !- Feature Value 1
  Azimuth,                                !- Feature Name 2