
OS:Version,
  {2d848215-517d-4b68-b063-8e695c085301}, !- Handle
  3.10.0;                                 !- Version Identifier

OS:SimulationControl,
  {6441d454-8758-4995-a6f0-a365606e80fd}, !- Handle
  ,                                       !- Do Zone Sizing Calculation
  ,                                       !- Do System Sizing Calculation
  ,                                       !- Do Plant Sizing Calculation
  No;                                     !- Run Simulation for Sizing Periods

OS:Timestep,
  {835d1987-9135-43da-91c2-9dae6e828430}, !- Handle
  1;                                      !- Number of Timesteps per Hour

OS:ShadowCalculation,
  {1c260e41-de50-40ae-80b0-fed1660c2015}, !- Handle
  PolygonClipping,                        !- Shading Calculation Method
  ,                                       !- Shading Calculation Update Frequency Method
  20,                                     !- Shading Calculation Update Frequency
  200,                                    !- Maximum Figures in Shadow Overlap Calculations
  ,                                       !- Polygon Clipping Algorithm
  512,                                    !- Pixel Counting Resolution
  ,                                       !- Sky Diffuse Modeling Algorithm
  No,                                     !- Output External Shading Calculation Results
  No,                                     !- Disable Self-Shading Within Shading Zone Groups
  No;                                     !- Disable Self-Shading From Shading Zone Groups to Other Zones

OS:SurfaceConvectionAlgorithm:Outside,
  {0ce5edbb-d102-4da8-95ff-80f6235be34a}, !- Handle
  DOE-2;                                  !- Algorithm

OS:SurfaceConvectionAlgorithm:Inside,
  {41d87cf3-ca5c-4fa4-936a-fa41c2e4ed78}, !- Handle
  TARP;                                   !- Algorithm

OS:ZoneCapacitanceMultiplier:ResearchSpecial,
  {654b00e7-7504-4b6d-ba20-a65f58ba36fc}, !- Handle
  7,                                      !- Temperature Capacity Multiplier
  15,                                     !- Humidity Capacity Multiplier
  ;                                       !- Carbon Dioxide Capacity Multiplier

OS:ConvergenceLimits,
  {152c69dd-0254-482d-ba49-9dbb90c5e0c9}, !- Handle
  0;                                      !- Minimum System Timestep {minutes}

OS:RunPeriod,
  {9fc04243-1839-4182-95dc-3ca216e234d7}, !- Handle
  Run Period 1,                           !- Name
  1,                                      !- Begin Month
  1,                                      !- Begin Day of Month
  12,                                     !- End Month
  31,                                     !- End Day of Month
  ,                                       !- Use Weather File Holidays and Special Days
  ,                                       !- Use Weather File Daylight Saving Period
  ,                                       !- Apply Weekend Holiday Rule
  ,                                       !- Use Weather File Rain Indicators
  ,                                       !- Use Weather File Snow Indicators
  ;                                       !- Number of Times Runperiod to be Repeated

OS:PerformancePrecisionTradeoffs,
  {c98ef6a0-5f81-4cc9-a73e-81a749855422}, !- Handle
  ,                                       !- Use Coil Direct Solutions
  CarrollMRT;                             !- Zone Radiant Exchange Algorithm

OS:WeatherFile,
  {1dd57de0-83db-41d6-bbfb-e158bc7d7906}, !- Handle
  Buffalo Niagara Intl Ap,                !- City
  NY,                                     !- State Province Region
  USA,                                    !- Country
  TMY3,                                   !- Data Source
  725280,                                 !- WMO Number
  42.93,                                  !- Latitude {deg}
  -78.73,                                 !- Longitude {deg}
  -5,                                     !- Time Zone {hr}
  215,                                    !- Elevation {m}
  /Users/nmoore/github/urbanopt-example-geojson-project/example_project/weather/USA_NY_Buffalo-Greater.Buffalo.Intl.AP.725280_TMY3.epw, !- Url
  6B50E0FF,                               !- Checksum
  ,                                       !- Start Date Actual Year
  Sunday;                                 !- Start Day of Week

OS:YearDescription,
  {b17ae8f2-09e0-4ef3-9488-c216d3155170}, !- Handle
  2007,                                   !- Calendar Year
  ,                                       !- Day of Week for Start Day
  ;                                       !- Is Leap Year

OS:Site,
  {0420c459-ee11-4875-9f47-905dfdcbc055}, !- Handle
  Buffalo Niagara Intl Ap_NY,             !- Name
  42.93,                                  !- Latitude {deg}
  -78.73,                                 !- Longitude {deg}
  -5,                                     !- Time Zone {hr}
  215,                                    !- Elevation {m}
  Suburbs,                                !- Terrain
  Yes;                                    !- Keep Site Location Information

OS:RunPeriodControl:DaylightSavingTime,
  {49a5d352-02a4-459a-b0f2-a861395037da}, !- Handle
  Mar 12,                                 !- Start Date
  Nov 5;                                  !- End Date

OS:Site:GroundTemperature:Shallow,
  {05c591cf-9bb1-4297-a4a1-087e7fa4ccb6}, !- Handle
  4.30207395723828,                       !- January Surface Ground Temperature {C}
  2.29327249652502,                       !- February Surface Ground Temperature {C}
  2.13240047156047,                       !- March Surface Ground Temperature {C}
  3.08567940719286,                       !- April Surface Ground Temperature {C}
  6.91256312497526,                       !- May Surface Ground Temperature {C}
  10.7216195949507,                       !- June Surface Ground Temperature {C}
  14.0238679822574,                       !- July Surface Ground Temperature {C}
  16.1157611184724,                       !- August Surface Ground Temperature {C}
  16.2934789303462,                       !- September Surface Ground Temperature {C}
  14.5920754632847,                       !- October Surface Ground Temperature {C}
  11.374036348653,                        !- November Surface Ground Temperature {C}
  7.68182621661674;                       !- December Surface Ground Temperature {C}

OS:ThermalZone,
  {b3b232c3-144e-41e8-b45b-bd13bd2edff9}, !- Handle
  conditioned space,                      !- Name
  1,                                      !- Multiplier
  ,                                       !- Ceiling Height {m}
  692.06373070848,                        !- Volume {m3}
  ,                                       !- Floor Area {m2}
  ,                                       !- Zone Inside Convection Algorithm
  ,                                       !- Zone Outside Convection Algorithm
  ,                                       !- Zone Conditioning Equipment List Name
  {32351102-b76c-46fd-9f72-38d07c743f17}, !- Zone Air Inlet Port List
  {f2289831-5bb3-4126-85de-db1573527e15}, !- Zone Air Exhaust Port List
  {6200fab4-e745-46e1-a37f-08890089b749}, !- Zone Air Node Name
  {26bb3b77-59d3-40da-870e-731a5657cab5}, !- Zone Return Air Port List
  ,                                       !- Primary Daylighting Control Name
  ,                                       !- Fraction of Zone Controlled by Primary Daylighting Control
  ,                                       !- Secondary Daylighting Control Name
  ,                                       !- Fraction of Zone Controlled by Secondary Daylighting Control
  ,                                       !- Illuminance Map Name
  ,                                       !- Group Rendering Name
  {a7e23e8e-3229-4539-b4ac-cdbb6c16f803}, !- Thermostat Name
  No;                                     !- Use Ideal Air Loads

OS:Node,
  {8baf17b3-1122-4fa6-b734-4e0a6ca97769}, !- Handle
  Node 1,                                 !- Name
  {6200fab4-e745-46e1-a37f-08890089b749}, !- Inlet Port
  ;                                       !- Outlet Port

OS:Connection,
  {6200fab4-e745-46e1-a37f-08890089b749}, !- Handle
  {b3b232c3-144e-41e8-b45b-bd13bd2edff9}, !- Source Object
  11,                                     !- Outlet Port
  {8baf17b3-1122-4fa6-b734-4e0a6ca97769}, !- Target Object
  2;                                      !- Inlet Port

OS:PortList,
  {32351102-b76c-46fd-9f72-38d07c743f17}, !- Handle
  {b3b232c3-144e-41e8-b45b-bd13bd2edff9}, !- HVAC Component
  {91145b6c-cad7-4117-8072-36d741773507}; !- Port 1

OS:PortList,
  {f2289831-5bb3-4126-85de-db1573527e15}, !- Handle
  {b3b232c3-144e-41e8-b45b-bd13bd2edff9}; !- HVAC Component

OS:PortList,
  {26bb3b77-59d3-40da-870e-731a5657cab5}, !- Handle
  {b3b232c3-144e-41e8-b45b-bd13bd2edff9}, !- HVAC Component
  {80553413-7dbc-4c8d-8e67-4fbe09653d15}; !- Port 1

OS:Sizing:Zone,
  {818c4603-1b9a-4b41-aa9c-ed39df8af928}, !- Handle
  {b3b232c3-144e-41e8-b45b-bd13bd2edff9}, !- Zone or ZoneList Name
  SupplyAirTemperature,                   !- Zone Cooling Design Supply Air Temperature Input Method
  14,                                     !- Zone Cooling Design Supply Air Temperature {C}
  11.11,                                  !- Zone Cooling Design Supply Air Temperature Difference {deltaC}
  SupplyAirTemperature,                   !- Zone Heating Design Supply Air Temperature Input Method
  40,                                     !- Zone Heating Design Supply Air Temperature {C}
  11.11,                                  !- Zone Heating Design Supply Air Temperature Difference {deltaC}
  0.0085,                                 !- Zone Cooling Design Supply Air Humidity Ratio {kg-H2O/kg-air}
  0.008,                                  !- Zone Heating Design Supply Air Humidity Ratio {kg-H2O/kg-air}
  ,                                       !- Zone Heating Sizing Factor
  ,                                       !- Zone Cooling Sizing Factor
  DesignDay,                              !- Cooling Design Air Flow Method
  ,                                       !- Cooling Design Air Flow Rate {m3/s}
  ,                                       !- Cooling Minimum Air Flow per Zone Floor Area {m3/s-m2}
  ,                                       !- Cooling Minimum Air Flow {m3/s}
  ,                                       !- Cooling Minimum Air Flow Fraction
  DesignDay,                              !- Heating Design Air Flow Method
  ,                                       !- Heating Design Air Flow Rate {m3/s}
  ,                                       !- Heating Maximum Air Flow per Zone Floor Area {m3/s-m2}
  ,                                       !- Heating Maximum Air Flow {m3/s}
  ,                                       !- Heating Maximum Air Flow Fraction
  No,                                     !- Account for Dedicated Outdoor Air System
  NeutralSupplyAir,                       !- Dedicated Outdoor Air System Control Strategy
  autosize,                               !- Dedicated Outdoor Air Low Setpoint Temperature for Design {C}
  autosize,                               !- Dedicated Outdoor Air High Setpoint Temperature for Design {C}
  Sensible Load Only No Latent Load,      !- Zone Load Sizing Method
  HumidityRatioDifference,                !- Zone Latent Cooling Design Supply Air Humidity Ratio Input Method
  ,                                       !- Zone Dehumidification Design Supply Air Humidity Ratio {kgWater/kgDryAir}
  0.005,                                  !- Zone Cooling Design Supply Air Humidity Ratio Difference {kgWater/kgDryAir}
  HumidityRatioDifference,                !- Zone Latent Heating Design Supply Air Humidity Ratio Input Method
  ,                                       !- Zone Humidification Design Supply Air Humidity Ratio {kgWater/kgDryAir}
  0.005,                                  !- Zone Humidification Design Supply Air Humidity Ratio Difference {kgWater/kgDryAir}
  ,                                       !- Zone Humidistat Dehumidification Set Point Schedule Name
  ,                                       !- Zone Humidistat Humidification Set Point Schedule Name
  ,                                       !- Design Zone Air Distribution Effectiveness in Cooling Mode
  ,                                       !- Design Zone Air Distribution Effectiveness in Heating Mode
  ,                                       !- Design Zone Secondary Recirculation Fraction {dimensionless}
  ,                                       !- Design Minimum Zone Ventilation Efficiency {dimensionless}
  Coincident;                             !- Sizing Option

OS:ZoneHVAC:EquipmentList,
  {41fc6f3a-106a-476f-8637-876604769be4}, !- Handle
  Zone HVAC Equipment List 1,             !- Name
  {b3b232c3-144e-41e8-b45b-bd13bd2edff9}, !- Thermal Zone
  ,                                       !- Load Distribution Scheme
  {9356ad20-4cb3-4527-bedf-ed556805b4ea}, !- Zone Equipment 1
  1,                                      !- Zone Equipment Cooling Sequence 1
  1,                                      !- Zone Equipment Heating or No-Load Sequence 1
  {a8e9d6d4-9e9a-4738-a461-c885544caeaa}, !- Zone Equipment Sequential Cooling Fraction Schedule Name 1
  {08716240-fe1b-4077-9b5e-00735c63c64b}; !- Zone Equipment Sequential Heating Fraction Schedule Name 1

OS:AdditionalProperties,
  {5f4c5bc1-4fc2-41ea-bddf-4853fdedfd74}, !- Handle
  {b3b232c3-144e-41e8-b45b-bd13bd2edff9}, !- Object Name
  ObjectType,                             !- Feature Name 1
  String,                                 !- Feature Data Type 1
  conditioned space;                      !- Feature Value 1

OS:Space,
  {caf36e9b-3162-44d1-96c8-d816d223b6c2}, !- Handle
  conditioned space 1,                    !- Name
  ,                                       !- Space Type Name
  ,                                       !- Default Construction Set Name
  ,                                       !- Default Schedule Set Name
  ,                                       !- Direction of Relative North {deg}
  ,                                       !- X Origin {m}
  ,                                       !- Y Origin {m}
  ,                                       !- Z Origin {m}
  ,                                       !- Building Story Name
  {b3b232c3-144e-41e8-b45b-bd13bd2edff9}, !- Thermal Zone Name
  ,                                       !- Part of Total Floor Area
  ,                                       !- Design Specification Outdoor Air Object Name
  ,                                       !- Building Unit Name
  692.06373070848;                        !- Volume {m3}

OS:Schedule:Ruleset,
  {5d4f09b9-b93d-4e2b-8919-0e8773571eba}, !- Handle
  heating setpoint,                       !- Name
  {32eb6758-1d1f-42ed-af46-1e36107ed4a0}, !- Schedule Type Limits Name
  {99f71c11-93f9-4d91-b389-91543d3775a4}; !- Default Day Schedule Name

OS:Schedule:Day,
  {99f71c11-93f9-4d91-b389-91543d3775a4}, !- Handle
  heating setpoint default day,           !- Name
  {32eb6758-1d1f-42ed-af46-1e36107ed4a0}, !- Schedule Type Limits Name
  ,                                       !- Interpolate to Timestep
  24,                                     !- Hour 1
  0,                                      !- Minute 1
  0;                                      !- Value Until Time 1

OS:Schedule:Rule,
  {f532a0de-27b1-43e1-8f76-3a9bf584d768}, !- Handle
  heating setpoint allday rule,           !- Name
  {5d4f09b9-b93d-4e2b-8919-0e8773571eba}, !- Schedule Ruleset Name
  0,                                      !- Rule Order
  {c4702c20-f0eb-4eb1-aef2-55214082adcf}, !- Day Schedule Name
  Yes,                                    !- Apply Sunday
  Yes,                                    !- Apply Monday
  Yes,                                    !- Apply Tuesday
  Yes,                                    !- Apply Wednesday
  Yes,                                    !- Apply Thursday
  Yes,                                    !- Apply Friday
  Yes,                                    !- Apply Saturday
  DateRange,                              !- Date Specification Type
  1,                                      !- Start Month
  1,                                      !- Start Day
  12,                                     !- End Month
  31;                                     !- End Day

OS:Schedule:Day,
  {c4702c20-f0eb-4eb1-aef2-55214082adcf}, !- Handle
  heating setpoint day,                   !- Name
  {32eb6758-1d1f-42ed-af46-1e36107ed4a0}, !- Schedule Type Limits Name
  ,                                       !- Interpolate to Timestep
  24,                                     !- Hour 1
  0,                                      !- Minute 1
  20;                                     !- Value Until Time 1

OS:Schedule:Ruleset,
  {ef8e4a44-0c44-462f-8dca-795d81915861}, !- Handle
  cooling setpoint,                       !- Name
  {32eb6758-1d1f-42ed-af46-1e36107ed4a0}, !- Schedule Type Limits Name
  {b10c2031-e643-4f84-9b9a-52f6a2fb755b}; !- Default Day Schedule Name

OS:Schedule:Day,
  {b10c2031-e643-4f84-9b9a-52f6a2fb755b}, !- Handle
  cooling setpoint default day,           !- Name
  {32eb6758-1d1f-42ed-af46-1e36107ed4a0}, !- Schedule Type Limits Name
  ,                                       !- Interpolate to Timestep
  24,                                     !- Hour 1
  0,                                      !- Minute 1
  0;                                      !- Value Until Time 1

OS:Schedule:Rule,
  {4d1c73c7-6f49-4547-b758-f5316858c43c}, !- Handle
  cooling setpoint allday rule,           !- Name
  {ef8e4a44-0c44-462f-8dca-795d81915861}, !- Schedule Ruleset Name
  0,                                      !- Rule Order
  {bac6ef03-60c9-4659-91f9-55f774141e89}, !- Day Schedule Name
  Yes,                                    !- Apply Sunday
  Yes,                                    !- Apply Monday
  Yes,                                    !- Apply Tuesday
  Yes,                                    !- Apply Wednesday
  Yes,                                    !- Apply Thursday
  Yes,                                    !- Apply Friday
  Yes,                                    !- Apply Saturday
  DateRange,                              !- Date Specification Type
  1,                                      !- Start Month
  1,                                      !- Start Day
  12,                                     !- End Month
  31;                                     !- End Day

OS:Schedule:Day,
  {bac6ef03-60c9-4659-91f9-55f774141e89}, !- Handle
  cooling setpoint day,                   !- Name
  {32eb6758-1d1f-42ed-af46-1e36107ed4a0}, !- Schedule Type Limits Name
  ,                                       !- Interpolate to Timestep
  24,                                     !- Hour 1
  0,                                      !- Minute 1
  25.5555555555556;                       !- Value Until Time 1

OS:ThermostatSetpoint:DualSetpoint,
  {a7e23e8e-3229-4539-b4ac-cdbb6c16f803}, !- Handle
  conditioned space temperature setpoint, !- Name
  {5d4f09b9-b93d-4e2b-8919-0e8773571eba}, !- Heating Setpoint Temperature Schedule Name
  {ef8e4a44-0c44-462f-8dca-795d81915861}, !- Cooling Setpoint Temperature Schedule Name
  0;                                      !- Temperature Difference Between Cutout And Setpoint {deltaC}

OS:ScheduleTypeLimits,
  {32eb6758-1d1f-42ed-af46-1e36107ed4a0}, !- Handle
  Temperature,                            !- Name
  ,                                       !- Lower Limit Value
  ,                                       !- Upper Limit Value
  Continuous,                             !- Numeric Type
  Temperature;                            !- Unit Type

OS:Surface,
  {0eabb00c-e8fc-4ec8-b29d-7be31f6e97e1}, !- Handle
  Roof1,                                  !- Name
  RoofCeiling,                            !- Surface Type
  {50184191-cd8e-473c-8996-7ce2b457ce63}, !- Construction Name
  {caf36e9b-3162-44d1-96c8-d816d223b6c2}, !- Space Name
  Outdoors,                               !- Outside Boundary Condition
  ,                                       !- Outside Boundary Condition Object
  SunExposed,                             !- Sun Exposure
  WindExposed,                            !- Wind Exposure
  ,                                       !- View Factor to Ground
  ,                                       !- Number of Vertices
  -8.42346109387347, 8.42346109387347, 2.4384, !- X,Y,Z Vertex 1 {m}
  -8.42346109387347, -8.42346109387347, 2.4384, !- X,Y,Z Vertex 2 {m}
  8.42346109387347, -8.42346109387347, 2.4384, !- X,Y,Z Vertex 3 {m}
  8.42346109387347, 8.42346109387347, 2.4384; !- X,Y,Z Vertex 4 {m}

OS:AdditionalProperties,
  {ccf854ec-74fb-493e-a861-233ad61cda01}, !- Handle
  {0eabb00c-e8fc-4ec8-b29d-7be31f6e97e1}, !- Object Name
  Length,                                 !- Feature Name 1
  Double,                                 !- Feature Data Type 1
  55.27205442174192,                      !- Feature Value 1
  Width,                                  !- Feature Name 2
  Double,                                 !- Feature Data Type 2
  55.272054421741913,                     !- Feature Value 2
  Azimuth,                                !- Feature Name 3
  Integer,                                !- Feature Data Type 3
  0,                                      !- Feature Value 3
  Tilt,                                   !- Feature Name 4
  Double,                                 !- Feature Data Type 4
  0,                                      !- Feature Value 4
  SurfaceType,                            !- Feature Name 5
  String,                                 !- Feature Data Type 5
  Roof;                                   !- Feature Value 5

OS:Material,
  {3d0a642d-7cdb-4973-9a90-89188264b45f}, !- Handle
  asphalt or fiberglass shingles,         !- Name
  Rough,                                  !- Roughness
  0.00635,                                !- Thickness {m}
  0.162714,                               !- Conductivity {W/m-K}
  1121.4,                                 !- Density {kg/m3}
  1465.45,                                !- Specific Heat {J/kg-K}
  0.9,                                    !- Thermal Absorptance
  0.85,                                   !- Solar Absorptance
  0.85;                                   !- Visible Absorptance

OS:Material,
  {b8bfebd6-2daf-4427-9b18-1a0b13e34b44}, !- Handle
  roof stud and cavity,                   !- Name
  Rough,                                  !- Roughness
  0.0889,                                 !- Thickness {m}
  0.491900632004487,                      !- Conductivity {W/m-K}
  50.32683,                               !- Density {kg/m3}
  1063.80987585548,                       !- Specific Heat {J/kg-K}
  0.9,                                    !- Thermal Absorptance
  0.7,                                    !- Solar Absorptance
  0.7;                                    !- Visible Absorptance

OS:Material,
  {b852d408-efe3-4fff-8e59-b386296c21ac}, !- Handle
  gypsum board,                           !- Name
  Rough,                                  !- Roughness
  0.00254,                                !- Thickness {m}
  0.1602906,                              !- Conductivity {W/m-K}
  801,                                    !- Density {kg/m3}
  837.4,                                  !- Specific Heat {J/kg-K}
  0.9,                                    !- Thermal Absorptance
  0.6,                                    !- Solar Absorptance
  0.6;                                    !- Visible Absorptance

OS:Construction,
  {50184191-cd8e-473c-8996-7ce2b457ce63}, !- Handle
  Roof1 construction,                     !- Name
  ,                                       !- Surface Rendering Name
  {3d0a642d-7cdb-4973-9a90-89188264b45f}, !- Layer 1
  {b8bfebd6-2daf-4427-9b18-1a0b13e34b44}, !- Layer 2
  {b852d408-efe3-4fff-8e59-b386296c21ac}; !- Layer 3

OS:Surface,
  {586f4f2f-13cd-4724-9f63-e6548b7d6c3e}, !- Handle
  Wall1,                                  !- Name
  Wall,                                   !- Surface Type
  {01a7f114-3f93-40a7-871c-e0583831b121}, !- Construction Name
  {caf36e9b-3162-44d1-96c8-d816d223b6c2}, !- Space Name
  Outdoors,                               !- Outside Boundary Condition
  ,                                       !- Outside Boundary Condition Object
  SunExposed,                             !- Sun Exposure
  WindExposed,                            !- Wind Exposure
  ,                                       !- View Factor to Ground
  ,                                       !- Number of Vertices
  -50.3693117384615, 51.2983421384615, 0, !- X,Y,Z Vertex 1 {m}
  -50.3693117384615, 51.2983421384615, 2.4384, !- X,Y,Z Vertex 2 {m}
  -30.8354417384615, 51.2983421384615, 2.4384, !- X,Y,Z Vertex 3 {m}
  -30.8354417384615, 51.2983421384615, 0; !- X,Y,Z Vertex 4 {m}

OS:AdditionalProperties,
  {17fbe89a-5607-48c9-a61c-8baf1df6ccbe}, !- Handle
  {586f4f2f-13cd-4724-9f63-e6548b7d6c3e}, !- Object Name
  Length,                                 !- Feature Name 1
  Double,                                 !- Feature Data Type 1
  64.087499999999991,                     !- Feature Value 1
  Azimuth,                                !- Feature Name 2
  Integer,                                !- Feature Data Type 2
  0,                                      !- Feature Value 2
  Tilt,                                   !- Feature Name 3
  Double,                                 !- Feature Data Type 3
  90,                                     !- Feature Value 3
  SurfaceType,                            !- Feature Name 4
  String,                                 !- Feature Data Type 4
  Wall;                                   !- Feature Value 4

OS:Material,
  {4c7c9dfd-f9ec-4c7e-b45c-247c0c1f6563}, !- Handle
  wood siding,                            !- Name
  Rough,                                  !- Roughness
  0.0254,                                 !- Thickness {m}
  0.1024175,                              !- Conductivity {W/m-K}
  544.68,                                 !- Density {kg/m3}
  1172.36,                                !- Specific Heat {J/kg-K}
  0.9,                                    !- Thermal Absorptance
  0.7,                                    !- Solar Absorptance
  0.7;                                    !- Visible Absorptance

OS:Material,
  {873e684f-1640-43ab-9aaf-e7bd6d67610e}, !- Handle
  osb sheathing 0.5 in.,                  !- Name
  Rough,                                  !- Roughness
  0.0127,                                 !- Thickness {m}
  0.1154577,                              !- Conductivity {W/m-K}
  512.64,                                 !- Density {kg/m3}
  1214.23,                                !- Specific Heat {J/kg-K}
  0.9,                                    !- Thermal Absorptance
  0.7,                                    !- Solar Absorptance
  0.7;                                    !- Visible Absorptance

OS:Material,
  {1a429a49-426c-4ad4-9615-907d729facf0}, !- Handle
  wall stud and cavity,                   !- Name
  Rough,                                  !- Roughness
  0.1397,                                 !- Thickness {m}
  0.0929021674204099,                     !- Conductivity {W/m-K}
  139.0536,                               !- Density {kg/m3}
  1170.23755760369,                       !- Specific Heat {J/kg-K}
  0.9,                                    !- Thermal Absorptance
  0.7,                                    !- Solar Absorptance
  0.7;                                    !- Visible Absorptance

OS:Material,
  {e3e158f5-33af-4429-8773-8c25c6713578}, !- Handle
  gypsum board 1,                         !- Name
  Rough,                                  !- Roughness
  0.0127,                                 !- Thickness {m}
  0.1602906,                              !- Conductivity {W/m-K}
  801,                                    !- Density {kg/m3}
  837.4,                                  !- Specific Heat {J/kg-K}
  0.9,                                    !- Thermal Absorptance
  0.6,                                    !- Solar Absorptance
  0.6;                                    !- Visible Absorptance

OS:Construction,
  {01a7f114-3f93-40a7-871c-e0583831b121}, !- Handle
  Wall1 construction,                     !- Name
  ,                                       !- Surface Rendering Name
  {4c7c9dfd-f9ec-4c7e-b45c-247c0c1f6563}, !- Layer 1
  {873e684f-1640-43ab-9aaf-e7bd6d67610e}, !- Layer 2
  {1a429a49-426c-4ad4-9615-907d729facf0}, !- Layer 3
  {e3e158f5-33af-4429-8773-8c25c6713578}; !- Layer 4

OS:Surface,
  {ce1ed227-bd84-46fe-8222-b6e6f8584a2e}, !- Handle
  Wall2,                                  !- Name
  Wall,                                   !- Surface Type
  {288ebfaa-3abd-4c89-8f2f-610e4bddb859}, !- Construction Name
  {caf36e9b-3162-44d1-96c8-d816d223b6c2}, !- Space Name
  Outdoors,                               !- Outside Boundary Condition
  ,                                       !- Outside Boundary Condition Object
  SunExposed,                             !- Sun Exposure
  WindExposed,                            !- Wind Exposure
  ,                                       !- View Factor to Ground
  ,                                       !- Number of Vertices
  51.2983421384615, -36.2004102, 0,       !- X,Y,Z Vertex 1 {m}
  51.2983421384615, -36.2004102, 2.4384,  !- X,Y,Z Vertex 2 {m}
  51.2983421384615, -45.9692502, 2.4384,  !- X,Y,Z Vertex 3 {m}
  51.2983421384615, -45.9692502, 0;       !- X,Y,Z Vertex 4 {m}

OS:AdditionalProperties,
  {4f2ac6ea-8e3b-4f92-9737-2cdf660d3213}, !- Handle
  {ce1ed227-bd84-46fe-8222-b6e6f8584a2e}, !- Object Name
  Length,                                 !- Feature Name 1
  Double,                                 !- Feature Data Type 1
  32.049999999999997,                     !- Feature Value 1
  Azimuth,                                !- Feature Name 2