
OS:Version,
  {8ba5580b-47ed-46fc-b16b-73dcbd30c83c}, !- Handle
  3.9.0;                                  !- Version Identifier

OS:SimulationControl,
  {e053ed0d-da85-44c5-acb5-976e79380542}, !- Handle
  ,                                       !- Do Zone Sizing Calculation
  ,                                       !- Do System Sizing Calculation
  ,                                       !- Do Plant Sizing Calculation
  No;                                     !- Run Simulation for Sizing Periods

OS:Timestep,
  {75f64f48-4c2c-4e82-841e-295e7982c09f}, !- Handle
  1;                                      !- Number of Timesteps per Hour

OS:ShadowCalculation,
  {c67a55e6-f9b7-4ef5-836d-2ca3fee5e6c8}, !- Handle
  PolygonClipping,                        !- Shading Calculation Method
  ,                                       !- Shading Calculation Update Frequency Method
  20,                                     !- Shading Calculation Update Frequency
  200,                                    !- Maximum Figures in Shadow Overlap Calculations
  ,                                       !- Polygon Clipping Algorithm
  512,                                    !- Pixel Counting Resolution
  ,                                       !- Sky Diffuse Modeling Algorithm
  No,                                     !- Output External Shading Calculation Results
  No,                                     !- Disable Self-Shading Within Shading Zone Groups
  No;                                     !- Disable Self-Shading From Shading Zone Groups to Other Zones

OS:SurfaceConvectionAlgorithm:Outside,
  {ced22c9d-aee5-4764-9963-3da79cf2678d}, !- Handle
  DOE-2;                                  !- Algorithm

OS:SurfaceConvectionAlgorithm:Inside,
  {c5242878-f322-4088-9e1a-d1ab9b8404e2}, !- Handle
  TARP;                                   !- Algorithm

OS:ZoneCapacitanceMultiplier:ResearchSpecial,
  {994cf5f7-6f02-491f-bd65-431a3a93673d}, !- Handle
  7,                                      !- Temperature Capacity Multiplier
  15,                                     !- Humidity Capacity Multiplier
  ;                                       !- Carbon Dioxide Capacity Multiplier

OS:ConvergenceLimits,
  {3cc3d40f-bc12-4b97-8d04-018157ac487b}, !- Handle
  0;                                      !- Minimum System Timestep {minutes}

OS:RunPeriod,
  {13c8b6f9-c20a-4cbd-8d9f-380684a5762f}, !- Handle
  Run Period 1,                           !- Name
  1,                                      !- Begin Month
  1,                                      !- Begin Day of Month
  12,                                     !- End Month
  31,                                     !- End Day of Month
  ,                                       !- Use Weather File Holidays and Special Days
  ,                                       !- Use Weather File Daylight Saving Period
  ,                                       !- Apply Weekend Holiday Rule
  ,                                       !- Use Weather File Rain Indicators
  ,                                       !- Use Weather File Snow Indicators
  ;                                       !- Number of Times Runperiod to be Repeated

OS:PerformancePrecisionTradeoffs,
  {a075ed94-2d8a-4218-82a0-d992687a1e8b}, !- Handle
  ,                                       !- Use Coil Direct Solutions
  CarrollMRT;                             !- Zone Radiant Exchange Algorithm

OS:WeatherFile,
  {708ff270-4756-4c01-86c4-5ac795ad07df}, !- Handle
  Buffalo Niagara Intl Ap,                !- City
  NY,                                     !- State Province Region
  USA,                                    !- Country
  TMY3,                                   !- Data Source
  725280,                                 !- WMO Number
  42.93,                                  !- Latitude {deg}
  -78.73,                                 !- Longitude {deg}
  -5,                                     !- Time Zone {hr}
  215,                                    !- Elevation {m}
  /Users/nmoore/github/urbanopt-example-geojson-project/example_project/weather/USA_NY_Buffalo-Greater.Buffalo.Intl.AP.725280_TMY3.epw, !- Url
  6B50E0FF,                               !- Checksum
  ,                                       !- Start Date Actual Year
  Sunday;                                 !- Start Day of Week

OS:YearDescription,
  {31d3bee5-34c3-44f2-9fd6-cc707b0789a1}, !- Handle
  2007,                                   !- Calendar Year
  ,                                       !- Day of Week for Start Day
  ;                                       !- Is Leap Year

OS:Site,
  {582ac5b2-0ace-4c27-af34-6c52d3e2e246}, !- Handle
  Buffalo Niagara Intl Ap_NY,             !- Name
  42.93,                                  !- Latitude {deg}
  -78.73,                                 !- Longitude {deg}
  -5,                                     !- Time Zone {hr}
  215,                                    !- Elevation {m}
  Suburbs,                                !- Terrain
  Yes;                                    !- Keep Site Location Information

OS:RunPeriodControl:DaylightSavingTime,
  {ca006a69-878b-4446-88e8-cc7747c61ff0}, !- Handle
  Mar 12,                                 !- Start Date
  Nov 5;                                  !- End Date

OS:Site:GroundTemperature:Shallow,
  {0ea02187-7d45-4370-a0b5-7dc11d36b1c7}, !- Handle
  4.30207395723828,                       !- January Surface Ground Temperature {C}
  2.29327249652502,                       !- February Surface Ground Temperature {C}
  2.13240047156047,                       !- March Surface Ground Temperature {C}
  3.08567940719286,                       !- April Surface Ground Temperature {C}
  6.91256312497526,                       !- May Surface Ground Temperature {C}
  10.7216195949507,                       !- June Surface Ground Temperature {C}
  14.0238679822574,                       !- July Surface Ground Temperature {C}
  16.1157611184724,                       !- August Surface Ground Temperature {C}
  16.2934789303462,                       !- September Surface Ground Temperature {C}
  14.5920754632847,                       !- October Surface Ground Temperature {C}
  11.374036348653,                        !- November Surface Ground Temperature {C}
  7.68182621661674;                       !- December Surface Ground Temperature {C}

OS:ThermalZone,
  {bb85b63c-c77f-46d7-8a57-042b92397e1d}, !- Handle
  conditioned space,                      !- Name
  1,                                      !- Multiplier
  ,                                       !- Ceiling Height {m}
  692.06373070848,                        !- Volume {m3}
  ,                                       !- Floor Area {m2}
  ,                                       !- Zone Inside Convection Algorithm
  ,                                       !- Zone Outside Convection Algorithm
  ,                                       !- Zone Conditioning Equipment List Name
  {4ee84497-7a3f-40be-9e3e-481fd08ac921}, !- Zone Air Inlet Port List
  {4d92331d-17a7-426e-ab65-faa067cd2ac5}, !- Zone Air Exhaust Port List
  {5d33fd46-5ace-45ee-a081-ed3b20c2527f}, !- Zone Air Node Name
  {5c3659b7-4fcc-4b8d-b9c2-3646232e32d0}, !- Zone Return Air Port List
  ,                                       !- Primary Daylighting Control Name
  ,                                       !- Fraction of Zone Controlled by Primary Daylighting Control
  ,                                       !- Secondary Daylighting Control Name
  ,                                       !- Fraction of Zone Controlled by Secondary Daylighting Control
  ,                                       !- Illuminance Map Name
  ,                                       !- Group Rendering Name
  {4ac46697-3bcb-4790-b2c9-f9d474f2233a}, !- Thermostat Name
  No;                                     !- Use Ideal Air Loads

OS:Node,
  {a978c2b9-43e9-4b56-ad13-15fbda8a6f86}, !- Handle
  Node 1,                                 !- Name
  {5d33fd46-5ace-45ee-a081-ed3b20c2527f}, !- Inlet Port
  ;                                       !- Outlet Port

OS:Connection,
  {5d33fd46-5ace-45ee-a081-ed3b20c2527f}, !- Handle
  {bb85b63c-c77f-46d7-8a57-042b92397e1d}, !- Source Object
  11,                                     !- Outlet Port
  {a978c2b9-43e9-4b56-ad13-15fbda8a6f86}, !- Target Object
  2;                                      !- Inlet Port

OS:PortList,
  {4ee84497-7a3f-40be-9e3e-481fd08ac921}, !- Handle
  {bb85b63c-c77f-46d7-8a57-042b92397e1d}, !- HVAC Component
  {04ea499c-71a2-48ea-9e69-67112479221b}; !- Port 1

OS:PortList,
  {4d92331d-17a7-426e-ab65-faa067cd2ac5}, !- Handle
  {bb85b63c-c77f-46d7-8a57-042b92397e1d}; !- HVAC Component

OS:PortList,
  {5c3659b7-4fcc-4b8d-b9c2-3646232e32d0}, !- Handle
  {bb85b63c-c77f-46d7-8a57-042b92397e1d}, !- HVAC Component
  {8c77a328-33ff-4714-b668-7d3a52a6c793}; !- Port 1

OS:Sizing:Zone,
  {fffc8159-3f02-45d8-99f8-aadfa2b308cf}, !- Handle
  {bb85b63c-c77f-46d7-8a57-042b92397e1d}, !- Zone or ZoneList Name
  SupplyAirTemperature,                   !- Zone Cooling Design Supply Air Temperature Input Method
  14,                                     !- Zone Cooling Design Supply Air Temperature {C}
  11.11,                                  !- Zone Cooling Design Supply Air Temperature Difference {deltaC}
  SupplyAirTemperature,                   !- Zone Heating Design Supply Air Temperature Input Method
  40,                                     !- Zone Heating Design Supply Air Temperature {C}
  11.11,                                  !- Zone Heating Design Supply Air Temperature Difference {deltaC}
  0.0085,                                 !- Zone Cooling Design Supply Air Humidity Ratio {kg-H2O/kg-air}
  0.008,                                  !- Zone Heating Design Supply Air Humidity Ratio {kg-H2O/kg-air}
  ,                                       !- Zone Heating Sizing Factor
  ,                                       !- Zone Cooling Sizing Factor
  DesignDay,                              !- Cooling Design Air Flow Method
  ,                                       !- Cooling Design Air Flow Rate {m3/s}
  ,                                       !- Cooling Minimum Air Flow per Zone Floor Area {m3/s-m2}
  ,                                       !- Cooling Minimum Air Flow {m3/s}
  ,                                       !- Cooling Minimum Air Flow Fraction
  DesignDay,                              !- Heating Design Air Flow Method
  ,                                       !- Heating Design Air Flow Rate {m3/s}
  ,                                       !- Heating Maximum Air Flow per Zone Floor Area {m3/s-m2}
  ,                                       !- Heating Maximum Air Flow {m3/s}
  ,                                       !- Heating Maximum Air Flow Fraction
  No,                                     !- Account for Dedicated Outdoor Air System
  NeutralSupplyAir,                       !- Dedicated Outdoor Air System Control Strategy
  autosize,                               !- Dedicated Outdoor Air Low Setpoint Temperature for Design {C}
  autosize,                               !- Dedicated Outdoor Air High Setpoint Temperature for Design {C}
  Sensible Load Only No Latent Load,      !- Zone Load Sizing Method
  HumidityRatioDifference,                !- Zone Latent Cooling Design Supply Air Humidity Ratio Input Method
  ,                                       !- Zone Dehumidification Design Supply Air Humidity Ratio {kgWater/kgDryAir}
  0.005,                                  !- Zone Cooling Design Supply Air Humidity Ratio Difference {kgWater/kgDryAir}
  HumidityRatioDifference,                !- Zone Latent Heating Design Supply Air Humidity Ratio Input Method
  ,                                       !- Zone Humidification Design Supply Air Humidity Ratio {kgWater/kgDryAir}
  0.005,                                  !- Zone Humidification Design Supply Air Humidity Ratio Difference {kgWater/kgDryAir}
  ,                                       !- Zone Humidistat Dehumidification Set Point Schedule Name
  ,                                       !- Zone Humidistat Humidification Set Point Schedule Name
  ,                                       !- Design Zone Air Distribution Effectiveness in Cooling Mode
  ,                                       !- Design Zone Air Distribution Effectiveness in Heating Mode
  ,                                       !- Design Zone Secondary Recirculation Fraction {dimensionless}
  ,                                       !- Design Minimum Zone Ventilation Efficiency {dimensionless}
  Coincident;                             !- Sizing Option

OS:ZoneHVAC:EquipmentList,
  {f539db0e-eee8-4c96-b47e-dd6aba908388}, !- Handle
  Zone HVAC Equipment List 1,             !- Name
  {bb85b63c-c77f-46d7-8a57-042b92397e1d}, !- Thermal Zone
  ,                                       !- Load Distribution Scheme
  {512b4f49-02bf-4c2d-a960-9d0c3826284c}, !- Zone Equipment 1
  1,                                      !- Zone Equipment Cooling Sequence 1
  1,                                      !- Zone Equipment Heating or No-Load Sequence 1
  {0020d7ea-8212-4a3c-803e-3a563c43e9b5}, !- Zone Equipment Sequential Cooling Fraction Schedule Name 1
  {bd5ecba1-4d2c-4c98-b060-984c95a00cd8}; !- Zone Equipment Sequential Heating Fraction Schedule Name 1

OS:AdditionalProperties,
  {4e69d632-c3cd-4eac-be18-4bd1dbb4cb1c}, !- Handle
  {bb85b63c-c77f-46d7-8a57-042b92397e1d}, !- Object Name
  ObjectType,                             !- Feature Name 1
  String,                                 !- Feature Data Type 1
  conditioned space;                      !- Feature Value 1

OS:Space,
  {c35692e0-3014-4b7a-a54d-ab3af8119040}, !- Handle
  conditioned space 1,                    !- Name
  ,                                       !- Space Type Name
  ,                                       !- Default Construction Set Name
  ,                                       !- Default Schedule Set Name
  ,                                       !- Direction of Relative North {deg}
  ,                                       !- X Origin {m}
  ,                                       !- Y Origin {m}
  ,                                       !- Z Origin {m}
  ,                                       !- Building Story Name
  {bb85b63c-c77f-46d7-8a57-042b92397e1d}, !- Thermal Zone Name
  ,                                       !- Part of Total Floor Area
  ,                                       !- Design Specification Outdoor Air Object Name
  ,                                       !- Building Unit Name
  692.06373070848;                        !- Volume {m3}

OS:Schedule:Ruleset,
  {1c33f43a-3cac-4bd2-bc63-c05ba365facc}, !- Handle
  heating setpoint,                       !- Name
  {4e5a555c-d3d5-4d81-801d-6f3ce625c74a}, !- Schedule Type Limits Name
  {410dc88a-eb24-4972-a58c-2a82d45f4b6d}; !- Default Day Schedule Name

OS:Schedule:Day,
  {410dc88a-eb24-4972-a58c-2a82d45f4b6d}, !- Handle
  heating setpoint default day,           !- Name
  {4e5a555c-d3d5-4d81-801d-6f3ce625c74a}, !- Schedule Type Limits Name
  ,                                       !- Interpolate to Timestep
  24,                                     !- Hour 1
  0,                                      !- Minute 1
  0;                                      !- Value Until Time 1

OS:Schedule:Rule,
  {b6795755-c3ad-413d-a03a-2e8f7ccaa1a7}, !- Handle
  heating setpoint allday rule,           !- Name
  {1c33f43a-3cac-4bd2-bc63-c05ba365facc}, !- Schedule Ruleset Name
  0,                                      !- Rule Order
  {65c7fe50-b091-4298-9fe9-7bec3013f75c}, !- Day Schedule Name
  Yes,                                    !- Apply Sunday
  Yes,                                    !- Apply Monday
  Yes,                                    !- Apply Tuesday
  Yes,                                    !- Apply Wednesday
  Yes,                                    !- Apply Thursday
  Yes,                                    !- Apply Friday
  Yes,                                    !- Apply Saturday
  DateRange,                              !- Date Specification Type
  1,                                      !- Start Month
  1,                                      !- Start Day
  12,                                     !- End Month
  31;                                     !- End Day

OS:Schedule:Day,
  {65c7fe50-b091-4298-9fe9-7bec3013f75c}, !- Handle
  heating setpoint day,                   !- Name
  {4e5a555c-d3d5-4d81-801d-6f3ce625c74a}, !- Schedule Type Limits Name
  ,                                       !- Interpolate to Timestep
  24,                                     !- Hour 1
  0,                                      !- Minute 1
  20;                                     !- Value Until Time 1

OS:Schedule:Ruleset,
  {990a0c60-ebef-4045-b002-b310ac69ba38}, !- Handle
  cooling setpoint,                       !- Name
  {4e5a555c-d3d5-4d81-801d-6f3ce625c74a}, !- Schedule Type Limits Name
  {6b34b7c1-f7d8-48f3-8293-fe26f4f57558}; !- Default Day Schedule Name

OS:Schedule:Day,
  {6b34b7c1-f7d8-48f3-8293-fe26f4f57558}, !- Handle
  cooling setpoint default day,           !- Name
  {4e5a555c-d3d5-4d81-801d-6f3ce625c74a}, !- Schedule Type Limits Name
  ,                                       !- Interpolate to Timestep
  24,                                     !- Hour 1
  0,                                      !- Minute 1
  0;                                      !- Value Until Time 1

OS:Schedule:Rule,
  {1e06adf8-6944-41ae-ae2a-27545bc62705}, !- Handle
  cooling setpoint allday rule,           !- Name
  {990a0c60-ebef-4045-b002-b310ac69ba38}, !- Schedule Ruleset Name
  0,                                      !- Rule Order
  {7b1d927e-8f7e-4a1a-93a5-a49c463c42a7}, !- Day Schedule Name
  Yes,                                    !- Apply Sunday
  Yes,                                    !- Apply Monday
  Yes,                                    !- Apply Tuesday
  Yes,                                    !- Apply Wednesday
  Yes,                                    !- Apply Thursday
  Yes,                                    !- Apply Friday
  Yes,                                    !- Apply Saturday
  DateRange,                              !- Date Specification Type
  1,                                      !- Start Month
  1,                                      !- Start Day
  12,                                     !- End Month
  31;                                     !- End Day

OS:Schedule:Day,
  {7b1d927e-8f7e-4a1a-93a5-a49c463c42a7}, !- Handle
  cooling setpoint day,                   !- Name
  {4e5a555c-d3d5-4d81-801d-6f3ce625c74a}, !- Schedule Type Limits Name
  ,                                       !- Interpolate to Timestep
  24,                                     !- Hour 1
  0,                                      !- Minute 1
  25.5555555555556;                       !- Value Until Time 1

OS:ThermostatSetpoint:DualSetpoint,
  {4ac46697-3bcb-4790-b2c9-f9d474f2233a}, !- Handle
  conditioned space temperature setpoint, !- Name
  {1c33f43a-3cac-4bd2-bc63-c05ba365facc}, !- Heating Setpoint Temperature Schedule Name
  {990a0c60-ebef-4045-b002-b310ac69ba38}, !- Cooling Setpoint Temperature Schedule Name
  0;                                      !- Temperature Difference Between Cutout And Setpoint {deltaC}

OS:ScheduleTypeLimits,
  {4e5a555c-d3d5-4d81-801d-6f3ce625c74a}, !- Handle
  Temperature,                            !- Name
  ,                                       !- Lower Limit Value
  ,                                       !- Upper Limit Value
  Continuous,                             !- Numeric Type
  Temperature;                            !- Unit Type

OS:Surface,
  {52734cf3-416a-46df-bc86-321dae6fc295}, !- Handle
  Roof1,                                  !- Name
  RoofCeiling,                            !- Surface Type
  {55a4e26b-00b7-44ab-9131-bf8c69bd6b18}, !- Construction Name
  {95f361c9-ebbd-4114-84c6-06bce60a7750}, !- Space Name
  Outdoors,                               !- Outside Boundary Condition
  ,                                       !- Outside Boundary Condition Object
  SunExposed,                             !- Sun Exposure
  WindExposed,                            !- Wind Exposure
  ,                                       !- View Factor to Ground
  ,                                       !- Number of Vertices
  9.8030170292795, 22.3990406761293, 2.4384, !- X,Y,Z Vertex 1 {m}
  9.8030170292795, 11.1328146279089, 8.0715130241102, !- X,Y,Z Vertex 2 {m}
  22.3990406761293, 11.1328146279089, 8.0715130241102, !- X,Y,Z Vertex 3 {m}
  22.3990406761293, 22.3990406761293, 2.4384; !- X,Y,Z Vertex 4 {m}

OS:AdditionalProperties,
  {dcb7d8e5-3b6a-4435-b812-856393e6e1cb}, !- Handle
  {52734cf3-416a-46df-bc86-321dae6fc295}, !- Object Name
  Length,                                 !- Feature Name 1
  Double,                                 !- Feature Data Type 1
  41.325536899113608,                     !- Feature Value 1
  Width,                                  !- Feature Name 2
  Double,                                 !- Feature Data Type 2
  41.325536899113601,                     !- Feature Value 2
  Azimuth,                                !- Feature Name 3
  Integer,                                !- Feature Data Type 3
  0,                                      !- Feature Value 3
  Tilt,                                   !- Feature Name 4
  Double,                                 !- Feature Data Type 4
  0.5,                                    !- Feature Value 4
  SurfaceType,                            !- Feature Name 5
  String,                                 !- Feature Data Type 5
  Roof;                                   !- Feature Value 5

OS:ThermalZone,
  {c897b432-9d2f-483e-900d-65def102276d}, !- Handle
  attic - vented,                         !- Name
  1,                                      !- Multiplier
  ,                                       !- Ceiling Height {m}
  356.389957095237,                       !- Volume {m3}
  ,                                       !- Floor Area {m2}
  ,                                       !- Zone Inside Convection Algorithm
  ,                                       !- Zone Outside Convection Algorithm
  ,                                       !- Zone Conditioning Equipment List Name
  {8e63b002-0280-46b4-ab31-0a51785f027c}, !- Zone Air Inlet Port List
  {27c2db7d-d20b-4b76-b744-400a07d20d11}, !- Zone Air Exhaust Port List
  {96d3fc60-4de0-436c-b603-40a79706367c}, !- Zone Air Node Name
  {4c672bbe-e976-4f57-be79-7bdef67f9a2e}, !- Zone Return Air Port List
  ,                                       !- Primary Daylighting Control Name
  ,                                       !- Fraction of Zone Controlled by Primary Daylighting Control
  ,                                       !- Secondary Daylighting Control Name
  ,                                       !- Fraction of Zone Controlled by Secondary Daylighting Control
  ,                                       !- Illuminance Map Name
  ,                                       !- Group Rendering Name
  ,                                       !- Thermostat Name
  No;                                     !- Use Ideal Air Loads

OS:Node,
  {ba221ce8-9c0b-4b32-a33c-cabb8158652c}, !- Handle
  Node 2,                                 !- Name
  {96d3fc60-4de0-436c-b603-40a79706367c}, !- Inlet Port
  ;                                       !- Outlet Port

OS:Connection,
  {96d3fc60-4de0-436c-b603-40a79706367c}, !- Handle
  {c897b432-9d2f-483e-900d-65def102276d}, !- Source Object
  11,                                     !- Outlet Port
  {ba221ce8-9c0b-4b32-a33c-cabb8158652c}, !- Target Object
  2;                                      !- Inlet Port

OS:PortList,
  {8e63b002-0280-46b4-ab31-0a51785f027c}, !- Handle
  {c897b432-9d2f-483e-900d-65def102276d}; !- HVAC Component

OS:PortList,
  {27c2db7d-d20b-4b76-b744-400a07d20d11}, !- Handle
  {c897b432-9d2f-483e-900d-65def102276d}; !- HVAC Component

OS:PortList,
  {4c672bbe-e976-4f57-be79-7bdef67f9a2e}, !- Handle
  {c897b432-9d2f-483e-900d-65def102276d}; !- HVAC Component

OS:Sizing:Zone,
  {8aa36bbe-cd5d-4f7f-851f-a506d0635009}, !- Handle
  {c897b432-9d2f-483e-900d-65def102276d}, !- Zone or ZoneList Name
  SupplyAirTemperature,                   !- Zone Cooling Design Supply Air Temperature Input Method
  14,                                     !- Zone Cooling Design Supply Air Temperature {C}
  11.11,                                  !- Zone Cooling Design Supply Air Temperature Difference {deltaC}
  SupplyAirTemperature,                   !- Zone Heating Design Supply Air Temperature Input Method
  40,                                     !- Zone Heating Design Supply Air Temperature {C}
  11.11,                                  !- Zone Heating Design Supply Air Temperature Difference {deltaC}
  0.0085,                                 !- Zone Cooling Design Supply Air Humidity Ratio {kg-H2O/kg-air}
  0.008,                                  !- Zone Heating Design Supply Air Humidity Ratio {kg-H2O/kg-air}
  ,                                       !- Zone Heating Sizing Factor
  ,                                       !- Zone Cooling Sizing Factor
  DesignDay,                              !- Cooling Design Air Flow Method
  ,                                       !- Cooling Design Air Flow Rate {m3/s}
  ,                                       !- Cooling Minimum Air Flow per Zone Floor Area {m3/s-m2}
  ,                                       !- Cooling Minimum Air Flow {m3/s}
  ,                                       !- Cooling Minimum Air Flow Fraction
  DesignDay,                              !- Heating Design Air Flow Method
  ,                                       !- Heating Design Air Flow Rate {m3/s}
  ,                                       !- Heating Maximum Air Flow per Zone Floor Area {m3/s-m2}
  ,                                       !- Heating Maximum Air Flow {m3/s}
  ,                                       !- Heating Maximum Air Flow Fraction
  No,                                     !- Account for Dedicated Outdoor Air System
  NeutralSupplyAir,                       !- Dedicated Outdoor Air System Control Strategy
  autosize,                               !- Dedicated Outdoor Air Low Setpoint Temperature for Design {C}
  autosize,                               !- Dedicated Outdoor Air High Setpoint Temperature for Design {C}
  Sensible Load Only No Latent Load,      !- Zone Load Sizing Method
  HumidityRatioDifference,                !- Zone Latent Cooling Design Supply Air Humidity Ratio Input Method
  ,                                       !- Zone Dehumidification Design Supply Air Humidity Ratio {kgWater/kgDryAir}
  0.005,                                  !- Zone Cooling Design Supply Air Humidity Ratio Difference {kgWater/kgDryAir}
  HumidityRatioDifference,                !- Zone Latent Heating Design Supply Air Humidity Ratio Input Method
  ,                                       !- Zone Humidification Design Supply Air Humidity Ratio {kgWater/kgDryAir}
  0.005,                                  !- Zone Humidification Design Supply Air Humidity Ratio Difference {kgWater/kgDryAir}
  ,                                       !- Zone Humidistat Dehumidification Set Point Schedule Name
  ,                                       !- Zone Humidistat Humidification Set Point Schedule Name
  ,                                       !- Design Zone Air Distribution Effectiveness in Cooling Mode
  ,                                       !- Design Zone Air Distribution Effectiveness in Heating Mode
  ,                                       !- Design Zone Secondary Recirculation Fraction {dimensionless}
  ,                                       !- Design Minimum Zone Ventilation Efficiency {dimensionless}
  Coincident;                             !- Sizing Option

OS:ZoneHVAC:EquipmentList,
  {cb3b4892-05d8-40b3-87e2-d739531987ed}, !- Handle
  Zone HVAC Equipment List 2,             !- Name
  {c897b432-9d2f-483e-900d-65def102276d}; !- Thermal Zone

OS:AdditionalProperties,
  {7c594377-3533-48bb-9c09-05263da63719}, !- Handle
  {c897b432-9d2f-483e-900d-65def102276d}, !- Object Name
  ObjectType,                             !- Feature Name 1
  String,                                 !- Feature Data Type 1
  attic - vented;                         !- Feature Value 1

OS:Space,
  {95f361c9-ebbd-4114-84c6-06bce60a7750}, !- Handle
  attic - vented 1,                       !- Name
  ,                                       !- Space Type Name
  ,                                       !- Default Construction Set Name
  ,                                       !- Default Schedule Set Name
  ,                                       !- Direction of Relative North {deg}
  ,                                       !- X Origin {m}
  ,                                       !- Y Origin {m}
  ,                                       !- Z Origin {m}
  ,                                       !- Building Story Name
  {c897b432-9d2f-483e-900d-65def102276d}, !- Thermal Zone Name
  ,                                       !- Part of Total Floor Area
  ,                                       !- Design Specification Outdoor Air Object Name
  ,                                       !- Building Unit Name
  356.389957095237;                       !- Volume {m3}

OS:Material,
  {97aa540d-f3a4-4ae8-8840-e59c8a149555}, !- Handle
  asphalt or fiberglass shingles,         !- Name
  Rough,                                  !- Roughness
  0.00635,                                !- Thickness {m}
  0.162714,                               !- Conductivity {W/m-K}
  1121.4,                                 !- Density {kg/m3}
  1465.45,                                !- Specific Heat {J/kg-K}
  0.9,                                    !- Thermal Absorptance
  0.85,                                   !- Solar Absorptance