
OS:Version,
  {893b1a3a-37db-46e3-a62c-19d920df9159}, !- Handle
  3.10.0;                                 !- Version Identifier

OS:SimulationControl,
  {e24ff017-172f-43af-80cd-fc9efed716a3}, !- Handle
  ,                                       !- Do Zone Sizing Calculation
  ,                                       !- Do System Sizing Calculation
  ,                                       !- Do Plant Sizing Calculation
  No;                                     !- Run Simulation for Sizing Periods

OS:Timestep,
  {6f1c2f90-8bf9-4217-ac9a-4e384383cb2b}, !- Handle
  1;                                      !- Number of Timesteps per Hour

OS:ShadowCalculation,
  {3c95d061-e474-421b-9961-f87b517b8a05}, !- Handle
  PolygonClipping,                        !- Shading Calculation Method
  ,                                       !- Shading Calculation Update Frequency Method
  20,                                     !- Shading Calculation Update Frequency
  200,                                    !- Maximum Figures in Shadow Overlap Calculations
  ,                                       !- Polygon Clipping Algorithm
  512,                                    !- Pixel Counting Resolution
  ,                                       !- Sky Diffuse Modeling Algorithm
  No,                                     !- Output External Shading Calculation Results
  No,                                     !- Disable Self-Shading Within Shading Zone Groups
  No;                                     !- Disable Self-Shading From Shading Zone Groups to Other Zones

OS:SurfaceConvectionAlgorithm:Outside,
  {fd823c23-ff8f-441b-9290-3f3bd5d9f2f4}, !- Handle
  DOE-2;                                  !- Algorithm

OS:SurfaceConvectionAlgorithm:Inside,
  {8277d845-35b7-420f-b516-7de8d9668742}, !- Handle
  TARP;                                   !- Algorithm

OS:ZoneCapacitanceMultiplier:ResearchSpecial,
  {9e06003c-0d8c-402e-92a2-0d0bd362f0f2}, !- Handle
  7,                                      !- Temperature Capacity Multiplier
  15,                                     !- Humidity Capacity Multiplier
  ;                                       !- Carbon Dioxide Capacity Multiplier

OS:ConvergenceLimits,
  {a1fbc3d5-5843-4c4f-968f-33a294f9b96d}, !- Handle
  0;                                      !- Minimum System Timestep {minutes}

OS:RunPeriod,
  {24142d7d-aa0c-4e2a-9027-257e5cc9f107}, !- Handle
  Run Period 1,                           !- Name
  1,                                      !- Begin Month
  1,                                      !- Begin Day of Month
  12,                                     !- End Month
  31,                                     !- End Day of Month
  ,                                       !- Use Weather File Holidays and Special Days
  ,                                       !- Use Weather File Daylight Saving Period
  ,                                       !- Apply Weekend Holiday Rule
  ,                                       !- Use Weather File Rain Indicators
  ,                                       !- Use Weather File Snow Indicators
  ;                                       !- Number of Times Runperiod to be Repeated

OS:PerformancePrecisionTradeoffs,
  {bbf432a6-4866-4fa4-886e-30d132d7bcff}, !- Handle
  ,                                       !- Use Coil Direct Solutions
  CarrollMRT;                             !- Zone Radiant Exchange Algorithm

OS:WeatherFile,
  {1b844624-6ef5-4071-84a1-732011ef9cf9}, !- Handle
  Buffalo Niagara Intl Ap,                !- City
  NY,                                     !- State Province Region
  USA,                                    !- Country
  TMY3,                                   !- Data Source
  725280,                                 !- WMO Number
  42.93,                                  !- Latitude {deg}
  -78.73,                                 !- Longitude {deg}
  -5,                                     !- Time Zone {hr}
  215,                                    !- Elevation {m}
  /Users/nmoore/github/urbanopt-example-geojson-project/example_project/weather/USA_NY_Buffalo-Greater.Buffalo.Intl.AP.725280_TMY3.epw, !- Url
  6B50E0FF,                               !- Checksum
  ,                                       !- Start Date Actual Year
  Sunday;                                 !- Start Day of Week

OS:YearDescription,
  {734c6ef3-4fb0-46f0-97e6-89b7682e6d24}, !- Handle
  2007,                                   !- Calendar Year
  ,                                       !- Day of Week for Start Day
  ;                                       !- Is Leap Year

OS:Site,
  {52005a6f-a32b-4d17-8572-49453eeb5da6}, !- Handle
  Buffalo Niagara Intl Ap_NY,             !- Name
  42.93,                                  !- Latitude {deg}
  -78.73,                                 !- Longitude {deg}
  -5,                                     !- Time Zone {hr}
  215,                                    !- Elevation {m}
  Suburbs,                                !- Terrain
  Yes;                                    !- Keep Site Location Information

OS:RunPeriodControl:DaylightSavingTime,
  {bdd595bf-2f73-4ce6-a71a-2c783dff0f09}, !- Handle
  Mar 12,                                 !- Start Date
  Nov 5;                                  !- End Date

OS:Site:GroundTemperature:Shallow,
  {19185db9-4007-4aac-bcd6-c8310e121f82}, !- Handle
  4.30207395723828,                       !- January Surface Ground Temperature {C}
  2.29327249652502,                       !- February Surface Ground Temperature {C}
  2.13240047156047,                       !- March Surface Ground Temperature {C}
  3.08567940719286,                       !- April Surface Ground Temperature {C}
  6.91256312497526,                       !- May Surface Ground Temperature {C}
  10.7216195949507,                       !- June Surface Ground Temperature {C}
  14.0238679822574,                       !- July Surface Ground Temperature {C}
  16.1157611184724,                       !- August Surface Ground Temperature {C}
  16.2934789303462,                       !- September Surface Ground Temperature {C}
  14.5920754632847,                       !- October Surface Ground Temperature {C}
  11.374036348653,                        !- November Surface Ground Temperature {C}
  7.68182621661674;                       !- December Surface Ground Temperature {C}

OS:ThermalZone,
  {c05123e4-23c4-4eb9-97db-608fbab103dd}, !- Handle
  conditioned space,                      !- Name
  1,                                      !- Multiplier
  ,                                       !- Ceiling Height {m}
  692.06373070848,                        !- Volume {m3}
  ,                                       !- Floor Area {m2}
  ,                                       !- Zone Inside Convection Algorithm
  ,                                       !- Zone Outside Convection Algorithm
  ,                                       !- Zone Conditioning Equipment List Name
  {c54360ad-80fa-4e05-9c4f-fcefb7f1a55d}, !- Zone Air Inlet Port List
  {c747382c-632d-46ce-842e-1d3bfc2bbd88}, !- Zone Air Exhaust Port List
  {55bb6a74-5721-47c7-a784-c54ec543c96f}, !- Zone Air Node Name
  {44db2bcc-dd78-4606-9c1e-a3d357731523}, !- Zone Return Air Port List
  ,                                       !- Primary Daylighting Control Name
  ,                                       !- Fraction of Zone Controlled by Primary Daylighting Control
  ,                                       !- Secondary Daylighting Control Name
  ,                                       !- Fraction of Zone Controlled by Secondary Daylighting Control
  ,                                       !- Illuminance Map Name
  ,                                       !- Group Rendering Name
  {93fd1fcc-f60a-43e9-8aa7-04ce0833d7a9}, !- Thermostat Name
  No;                                     !- Use Ideal Air Loads

OS:Node,
  {069eec38-bb6d-442a-8322-fbf68b3bffb0}, !- Handle
  Node 1,                                 !- Name
  {55bb6a74-5721-47c7-a784-c54ec543c96f}, !- Inlet Port
  ;                                       !- Outlet Port

OS:Connection,
  {55bb6a74-5721-47c7-a784-c54ec543c96f}, !- Handle
  {c05123e4-23c4-4eb9-97db-608fbab103dd}, !- Source Object
  11,                                     !- Outlet Port
  {069eec38-bb6d-442a-8322-fbf68b3bffb0}, !- Target Object
  2;                                      !- Inlet Port

OS:PortList,
  {c54360ad-80fa-4e05-9c4f-fcefb7f1a55d}, !- Handle
  {c05123e4-23c4-4eb9-97db-608fbab103dd}, !- HVAC Component
  {91a15f5e-96a5-451f-ac1b-fda552f25215}; !- Port 1

OS:PortList,
  {c747382c-632d-46ce-842e-1d3bfc2bbd88}, !- Handle
  {c05123e4-23c4-4eb9-97db-608fbab103dd}; !- HVAC Component

OS:PortList,
  {44db2bcc-dd78-4606-9c1e-a3d357731523}, !- Handle
  {c05123e4-23c4-4eb9-97db-608fbab103dd}, !- HVAC Component
  {e76d5497-ec0c-46ac-bd31-8c8e8a729548}; !- Port 1

OS:Sizing:Zone,
  {f090a3cc-d0e1-44cd-a4ee-65e703658479}, !- Handle
  {c05123e4-23c4-4eb9-97db-608fbab103dd}, !- Zone or ZoneList Name
  SupplyAirTemperature,                   !- Zone Cooling Design Supply Air Temperature Input Method
  14,                                     !- Zone Cooling Design Supply Air Temperature {C}
  11.11,                                  !- Zone Cooling Design Supply Air Temperature Difference {deltaC}
  SupplyAirTemperature,                   !- Zone Heating Design Supply Air Temperature Input Method
  40,                                     !- Zone Heating Design Supply Air Temperature {C}
  11.11,                                  !- Zone Heating Design Supply Air Temperature Difference {deltaC}
  0.0085,                                 !- Zone Cooling Design Supply Air Humidity Ratio {kg-H2O/kg-air}
  0.008,                                  !- Zone Heating Design Supply Air Humidity Ratio {kg-H2O/kg-air}
  ,                                       !- Zone Heating Sizing Factor
  ,                                       !- Zone Cooling Sizing Factor
  DesignDay,                              !- Cooling Design Air Flow Method
  ,                                       !- Cooling Design Air Flow Rate {m3/s}
  ,                                       !- Cooling Minimum Air Flow per Zone Floor Area {m3/s-m2}
  ,                                       !- Cooling Minimum Air Flow {m3/s}
  ,                                       !- Cooling Minimum Air Flow Fraction
  DesignDay,                              !- Heating Design Air Flow Method
  ,                                       !- Heating Design Air Flow Rate {m3/s}
  ,                                       !- Heating Maximum Air Flow per Zone Floor Area {m3/s-m2}
  ,                                       !- Heating Maximum Air Flow {m3/s}
  ,                                       !- Heating Maximum Air Flow Fraction
  No,                                     !- Account for Dedicated Outdoor Air System
  NeutralSupplyAir,                       !- Dedicated Outdoor Air System Control Strategy
  autosize,                               !- Dedicated Outdoor Air Low Setpoint Temperature for Design {C}
  autosize,                               !- Dedicated Outdoor Air High Setpoint Temperature for Design {C}
  Sensible Load Only No Latent Load,      !- Zone Load Sizing Method
  HumidityRatioDifference,                !- Zone Latent Cooling Design Supply Air Humidity Ratio Input Method
  ,                                       !- Zone Dehumidification Design Supply Air Humidity Ratio {kgWater/kgDryAir}
  0.005,                                  !- Zone Cooling Design Supply Air Humidity Ratio Difference {kgWater/kgDryAir}
  HumidityRatioDifference,                !- Zone Latent Heating Design Supply Air Humidity Ratio Input Method
  ,                                       !- Zone Humidification Design Supply Air Humidity Ratio {kgWater/kgDryAir}
  0.005,                                  !- Zone Humidification Design Supply Air Humidity Ratio Difference {kgWater/kgDryAir}
  ,                                       !- Zone Humidistat Dehumidification Set Point Schedule Name
  ,                                       !- Zone Humidistat Humidification Set Point Schedule Name
  ,                                       !- Design Zone Air Distribution Effectiveness in Cooling Mode
  ,                                       !- Design Zone Air Distribution Effectiveness in Heating Mode
  ,                                       !- Design Zone Secondary Recirculation Fraction {dimensionless}
  ,                                       !- Design Minimum Zone Ventilation Efficiency {dimensionless}
  Coincident;                             !- Sizing Option

OS:ZoneHVAC:EquipmentList,
  {7658b38a-3672-4227-90b2-e6ea044596a9}, !- Handle
  Zone HVAC Equipment List 1,             !- Name
  {c05123e4-23c4-4eb9-97db-608fbab103dd}, !- Thermal Zone
  ,                                       !- Load Distribution Scheme
  {1b44be39-cc79-40aa-abe3-d295238fb725}, !- Zone Equipment 1
  1,                                      !- Zone Equipment Cooling Sequence 1
  1,                                      !- Zone Equipment Heating or No-Load Sequence 1
  {0e6d49f4-5c27-4fd4-9a69-e08f199585de}, !- Zone Equipment Sequential Cooling Fraction Schedule Name 1
  {34352efd-bc98-48bc-8177-a8b043d9107a}; !- Zone Equipment Sequential Heating Fraction Schedule Name 1

OS:AdditionalProperties,
  {1f21f0bd-e5ae-4788-aee9-7f85acfa06b3}, !- Handle
  {c05123e4-23c4-4eb9-97db-608fbab103dd}, !- Object Name
  ObjectType,                             !- Feature Name 1
  String,                                 !- Feature Data Type 1
  conditioned space;                      !- Feature Value 1

OS:Space,
  {e9965ef0-21f6-4a22-9444-47dd1e29d26d}, !- Handle
  conditioned space 1,                    !- Name
  ,                                       !- Space Type Name
  ,                                       !- Default Construction Set Name
  ,                                       !- Default Schedule Set Name
  ,                                       !- Direction of Relative North {deg}
  ,                                       !- X Origin {m}
  ,                                       !- Y Origin {m}
  ,                                       !- Z Origin {m}
  ,                                       !- Building Story Name
  {c05123e4-23c4-4eb9-97db-608fbab103dd}, !- Thermal Zone Name
  ,                                       !- Part of Total Floor Area
  ,                                       !- Design Specification Outdoor Air Object Name
  ,                                       !- Building Unit Name
  692.06373070848;                        !- Volume {m3}

OS:Schedule:Ruleset,
  {46103bf1-1799-4c22-aff2-55557cbcccb0}, !- Handle
  heating setpoint,                       !- Name
  {d547c8ad-4e6b-4b3b-b685-76ac1fd7b9af}, !- Schedule Type Limits Name
  {303b6b35-f9fa-4b1d-b6fd-5e217eb52d9f}; !- Default Day Schedule Name

OS:Schedule:Day,
  {303b6b35-f9fa-4b1d-b6fd-5e217eb52d9f}, !- Handle
  heating setpoint default day,           !- Name
  {d547c8ad-4e6b-4b3b-b685-76ac1fd7b9af}, !- Schedule Type Limits Name
  ,                                       !- Interpolate to Timestep
  24,                                     !- Hour 1
  0,                                      !- Minute 1
  0;                                      !- Value Until Time 1

OS:Schedule:Rule,
  {8ee54968-6e64-47ca-a5aa-0a50ae6233f0}, !- Handle
  heating setpoint allday rule,           !- Name
  {46103bf1-1799-4c22-aff2-55557cbcccb0}, !- Schedule Ruleset Name
  0,                                      !- Rule Order
  {b62983e3-9b19-4d78-aecb-7e4012ab9dfb}, !- Day Schedule Name
  Yes,                                    !- Apply Sunday
  Yes,                                    !- Apply Monday
  Yes,                                    !- Apply Tuesday
  Yes,                                    !- Apply Wednesday
  Yes,                                    !- Apply Thursday
  Yes,                                    !- Apply Friday
  Yes,                                    !- Apply Saturday
  DateRange,                              !- Date Specification Type
  1,                                      !- Start Month
  1,                                      !- Start Day
  12,                                     !- End Month
  31;                                     !- End Day

OS:Schedule:Day,
  {b62983e3-9b19-4d78-aecb-7e4012ab9dfb}, !- Handle
  heating setpoint day,                   !- Name
  {d547c8ad-4e6b-4b3b-b685-76ac1fd7b9af}, !- Schedule Type Limits Name
  ,                                       !- Interpolate to Timestep
  24,                                     !- Hour 1
  0,                                      !- Minute 1
  20;                                     !- Value Until Time 1

OS:Schedule:Ruleset,
  {327231f6-3a0c-4af5-a870-3205a250cb5d}, !- Handle
  cooling setpoint,                       !- Name
  {d547c8ad-4e6b-4b3b-b685-76ac1fd7b9af}, !- Schedule Type Limits Name
  {61774276-cfac-4bbe-8c19-b1a0374be107}; !- Default Day Schedule Name

OS:Schedule:Day,
  {61774276-cfac-4bbe-8c19-b1a0374be107}, !- Handle
  cooling setpoint default day,           !- Name
  {d547c8ad-4e6b-4b3b-b685-76ac1fd7b9af}, !- Schedule Type Limits Name
  ,                                       !- Interpolate to Timestep
  24,                                     !- Hour 1
  0,                                      !- Minute 1
  0;                                      !- Value Until Time 1

OS:Schedule:Rule,
  {cde457f1-177a-4b8c-a33e-2307d026658f}, !- Handle
  cooling setpoint allday rule,           !- Name
  {327231f6-3a0c-4af5-a870-3205a250cb5d}, !- Schedule Ruleset Name
  0,                                      !- Rule Order
  {a8ead658-d503-466d-8fd0-54cb4e7de425}, !- Day Schedule Name
  Yes,                                    !- Apply Sunday
  Yes,                                    !- Apply Monday
  Yes,                                    !- Apply Tuesday
  Yes,                                    !- Apply Wednesday
  Yes,                                    !- Apply Thursday
  Yes,                                    !- Apply Friday
  Yes,                                    !- Apply Saturday
  DateRange,                              !- Date Specification Type
  1,                                      !- Start Month
  1,                                      !- Start Day
  12,                                     !- End Month
  31;                                     !- End Day

OS:Schedule:Day,
  {a8ead658-d503-466d-8fd0-54cb4e7de425}, !- Handle
  cooling setpoint day,                   !- Name
  {d547c8ad-4e6b-4b3b-b685-76ac1fd7b9af}, !- Schedule Type Limits Name
  ,                                       !- Interpolate to Timestep
  24,                                     !- Hour 1
  0,                                      !- Minute 1
  25.5555555555556;                       !- Value Until Time 1

OS:ThermostatSetpoint:DualSetpoint,
  {93fd1fcc-f60a-43e9-8aa7-04ce0833d7a9}, !- Handle
  conditioned space temperature setpoint, !- Name
  {46103bf1-1799-4c22-aff2-55557cbcccb0}, !- Heating Setpoint Temperature Schedule Name
  {327231f6-3a0c-4af5-a870-3205a250cb5d}, !- Cooling Setpoint Temperature Schedule Name
  0;                                      !- Temperature Difference Between Cutout And Setpoint {deltaC}

OS:ScheduleTypeLimits,
  {d547c8ad-4e6b-4b3b-b685-76ac1fd7b9af}, !- Handle
  Temperature,                            !- Name
  ,                                       !- Lower Limit Value
  ,                                       !- Upper Limit Value
  Continuous,                             !- Numeric Type
  Temperature;                            !- Unit Type

OS:Surface,
  {e4483b77-34cf-41ef-98ae-3503b8cf47fe}, !- Handle
  Roof1,                                  !- Name
  RoofCeiling,                            !- Surface Type
  {7a7c03d2-cdef-49ad-bb28-4b0175369eb6}, !- Construction Name
  {6a3f64e5-4c38-49e6-82b8-ec723c054bc1}, !- Space Name
  Outdoors,                               !- Outside Boundary Condition
  ,                                       !- Outside Boundary Condition Object
  SunExposed,                             !- Sun Exposure
  WindExposed,                            !- Wind Exposure
  ,                                       !- View Factor to Ground
  ,                                       !- Number of Vertices
  9.8030170292795, 22.3990406761293, 2.4384, !- X,Y,Z Vertex 1 {m}
  9.8030170292795, 11.1328146279089, 8.0715130241102, !- X,Y,Z Vertex 2 {m}
  22.3990406761293, 11.1328146279089, 8.0715130241102, !- X,Y,Z Vertex 3 {m}
  22.3990406761293, 22.3990406761293, 2.4384; !- X,Y,Z Vertex 4 {m}

OS:AdditionalProperties,
  {56899e0a-efa1-45fe-aec0-f6237184178b}, !- Handle
  {e4483b77-34cf-41ef-98ae-3503b8cf47fe}, !- Object Name
  Length,                                 !- Feature Name 1
  Double,                                 !- Feature Data Type 1
  41.325536899113608,                     !- Feature Value 1
  Width,                                  !- Feature Name 2
  Double,                                 !- Feature Data Type 2
  41.325536899113601,                     !- Feature Value 2
  Azimuth,                                !- Feature Name 3
  Integer,                                !- Feature Data Type 3
  0,                                      !- Feature Value 3
  Tilt,                                   !- Feature Name 4
  Double,                                 !- Feature Data Type 4
  0.5,                                    !- Feature Value 4
  SurfaceType,                            !- Feature Name 5
  String,                                 !- Feature Data Type 5
  Roof;                                   !- Feature Value 5

OS:ThermalZone,
  {a575e27e-916d-444a-a8d2-c66951842431}, !- Handle
  attic - vented,                         !- Name
  1,                                      !- Multiplier
  ,                                       !- Ceiling Height {m}
  356.390921899745,                       !- Volume {m3}
  ,                                       !- Floor Area {m2}
  ,                                       !- Zone Inside Convection Algorithm
  ,                                       !- Zone Outside Convection Algorithm
  ,                                       !- Zone Conditioning Equipment List Name
  {0df7fdeb-a3bf-4b73-a9bf-d1b3727021c4}, !- Zone Air Inlet Port List
  {eb6f457c-fd9f-4ac9-acd9-a6f69886ac27}, !- Zone Air Exhaust Port List
  {b8c547f8-c00f-4956-9600-eea3ea8898a6}, !- Zone Air Node Name
  {ba48965d-2625-4c16-bdeb-b348a767def4}, !- Zone Return Air Port List
  ,                                       !- Primary Daylighting Control Name
  ,                                       !- Fraction of Zone Controlled by Primary Daylighting Control
  ,                                       !- Secondary Daylighting Control Name
  ,                                       !- Fraction of Zone Controlled by Secondary Daylighting Control
  ,                                       !- Illuminance Map Name
  ,                                       !- Group Rendering Name
  ,                                       !- Thermostat Name
  No;                                     !- Use Ideal Air Loads

OS:Node,
  {16f9ba09-7b86-4a26-b166-0bebf44227cf}, !- Handle
  Node 2,                                 !- Name
  {b8c547f8-c00f-4956-9600-eea3ea8898a6}, !- Inlet Port
  ;                                       !- Outlet Port

OS:Connection,
  {b8c547f8-c00f-4956-9600-eea3ea8898a6}, !- Handle
  {a575e27e-916d-444a-a8d2-c66951842431}, !- Source Object
  11,                                     !- Outlet Port
  {16f9ba09-7b86-4a26-b166-0bebf44227cf}, !- Target Object
  2;                                      !- Inlet Port

OS:PortList,
  {0df7fdeb-a3bf-4b73-a9bf-d1b3727021c4}, !- Handle
  {a575e27e-916d-444a-a8d2-c66951842431}; !- HVAC Component

OS:PortList,
  {eb6f457c-fd9f-4ac9-acd9-a6f69886ac27}, !- Handle
  {a575e27e-916d-444a-a8d2-c66951842431}; !- HVAC Component

OS:PortList,
  {ba48965d-2625-4c16-bdeb-b348a767def4}, !- Handle
  {a575e27e-916d-444a-a8d2-c66951842431}; !- HVAC Component

OS:Sizing:Zone,
  {271f1bd7-816e-4ed7-b624-ddddc389a39a}, !- Handle
  {a575e27e-916d-444a-a8d2-c66951842431}, !- Zone or ZoneList Name
  SupplyAirTemperature,                   !- Zone Cooling Design Supply Air Temperature Input Method
  14,                                     !- Zone Cooling Design Supply Air Temperature {C}
  11.11,                                  !- Zone Cooling Design Supply Air Temperature Difference {deltaC}
  SupplyAirTemperature,                   !- Zone Heating Design Supply Air Temperature Input Method
  40,                                     !- Zone Heating Design Supply Air Temperature {C}
  11.11,                                  !- Zone Heating Design Supply Air Temperature Difference {deltaC}
  0.0085,                                 !- Zone Cooling Design Supply Air Humidity Ratio {kg-H2O/kg-air}
  0.008,                                  !- Zone Heating Design Supply Air Humidity Ratio {kg-H2O/kg-air}
  ,                                       !- Zone Heating Sizing Factor
  ,                                       !- Zone Cooling Sizing Factor
  DesignDay,                              !- Cooling Design Air Flow Method
  ,                                       !- Cooling Design Air Flow Rate {m3/s}
  ,                                       !- Cooling Minimum Air Flow per Zone Floor Area {m3/s-m2}
  ,                                       !- Cooling Minimum Air Flow {m3/s}
  ,                                       !- Cooling Minimum Air Flow Fraction
  DesignDay,                              !- Heating Design Air Flow Method
  ,                                       !- Heating Design Air Flow Rate {m3/s}
  ,                                       !- Heating Maximum Air Flow per Zone Floor Area {m3/s-m2}
  ,                                       !- Heating Maximum Air Flow {m3/s}
  ,                                       !- Heating Maximum Air Flow Fraction
  No,                                     !- Account for Dedicated Outdoor Air System
  NeutralSupplyAir,                       !- Dedicated Outdoor Air System Control Strategy
  autosize,                               !- Dedicated Outdoor Air Low Setpoint Temperature for Design {C}
  autosize,                               !- Dedicated Outdoor Air High Setpoint Temperature for Design {C}
  Sensible Load Only No Latent Load,      !- Zone Load Sizing Method
  HumidityRatioDifference,                !- Zone Latent Cooling Design Supply Air Humidity Ratio Input Method
  ,                                       !- Zone Dehumidification Design Supply Air Humidity Ratio {kgWater/kgDryAir}
  0.005,                                  !- Zone Cooling Design Supply Air Humidity Ratio Difference {kgWater/kgDryAir}
  HumidityRatioDifference,                !- Zone Latent Heating Design Supply Air Humidity Ratio Input Method
  ,                                       !- Zone Humidification Design Supply Air Humidity Ratio {kgWater/kgDryAir}
  0.005,                                  !- Zone Humidification Design Supply Air Humidity Ratio Difference {kgWater/kgDryAir}
  ,                                       !- Zone Humidistat Dehumidification Set Point Schedule Name
  ,                                       !- Zone Humidistat Humidification Set Point Schedule Name
  ,                                       !- Design Zone Air Distribution Effectiveness in Cooling Mode
  ,                                       !- Design Zone Air Distribution Effectiveness in Heating Mode
  ,                                       !- Design Zone Secondary Recirculation Fraction {dimensionless}
  ,                                       !- Design Minimum Zone Ventilation Efficiency {dimensionless}
  Coincident;                             !- Sizing Option

OS:ZoneHVAC:EquipmentList,
  {2c59d034-d1f4-442d-ba70-f5583e182824}, !- Handle
  Zone HVAC Equipment List 2,             !- Name
  {a575e27e-916d-444a-a8d2-c66951842431}; !- Thermal Zone

OS:AdditionalProperties,
  {e3b14264-e28b-4dd9-a33f-396ca8dd0b24}, !- Handle
  {a575e27e-916d-444a-a8d2-c66951842431}, !- Object Name
  ObjectType,                             !- Feature Name 1
  String,                                 !- Feature Data Type 1
  attic - vented;                         !- Feature Value 1

OS:Space,
  {6a3f64e5-4c38-49e6-82b8-ec723c054bc1}, !- Handle
  attic - vented 1,                       !- Name
  ,                                       !- Space Type Name
  ,                                       !- Default Construction Set Name
  ,                                       !- Default Schedule Set Name
  ,                                       !- Direction of Relative North {deg}
  ,                                       !- X Origin {m}
  ,                                       !- Y Origin {m}
  ,                                       !- Z Origin {m}
  ,                                       !- Building Story Name
  {a575e27e-916d-444a-a8d2-c66951842431}, !- Thermal Zone Name
  ,                                       !- Part of Total Floor Area
  ,                                       !- Design Specification Outdoor Air Object Name
  ,                                       !- Building Unit Name
  356.390921899745;                       !- Volume {m3}

OS:Material,
  {ed7cc22f-d6fe-432a-874e-74b7d193fb0e}, !- Handle
  asphalt or fiberglass shingles,         !- Name
  Rough,                                  !- Roughness
  0.00635,                                !- Thickness {m}
  0.162714,                               !- Conductivity {W/m-K}
  1121.4,                                 !- Density {kg/m3}
  1465.45,                                !- Specific Heat {J/kg-K}
  0.9,                                    !- Thermal Absorptance
  0.85,                                   !- Solar Absorptance