
OS:Version,
  {2d5b8e09-cdef-41b1-b350-94abd3852e35}, !- Handle
  3.9.0;                                  !- Version Identifier

OS:SimulationControl,
  {3787a12c-68c3-490b-bada-bebc48cb3892}, !- Handle
  ,                                       !- Do Zone Sizing Calculation
  ,                                       !- Do System Sizing Calculation
  ,                                       !- Do Plant Sizing Calculation
  No;                                     !- Run Simulation for Sizing Periods

OS:Timestep,
  {39fb6d84-3d7c-495b-8570-cd25f17be1e3}, !- Handle
  1;                                      !- Number of Timesteps per Hour

OS:ShadowCalculation,
  {e4da276f-1a54-460b-b1c5-cf2ae6f0c5ee}, !- Handle
  PolygonClipping,                        !- Shading Calculation Method
  ,                                       !- Shading Calculation Update Frequency Method
  20,                                     !- Shading Calculation Update Frequency
  200,                                    !- Maximum Figures in Shadow Overlap Calculations
  ,                                       !- Polygon Clipping Algorithm
  512,                                    !- Pixel Counting Resolution
  ,                                       !- Sky Diffuse Modeling Algorithm
  No,                                     !- Output External Shading Calculation Results
  No,                                     !- Disable Self-Shading Within Shading Zone Groups
  No;                                     !- Disable Self-Shading From Shading Zone Groups to Other Zones

OS:SurfaceConvectionAlgorithm:Outside,
  {dd619b07-9dd7-4aa5-95be-31c8d9b75f19}, !- Handle
  DOE-2;                                  !- Algorithm

OS:SurfaceConvectionAlgorithm:Inside,
  {3bbf3d5f-8cb6-4d63-ad77-606246c40f90}, !- Handle
  TARP;                                   !- Algorithm

OS:ZoneCapacitanceMultiplier:ResearchSpecial,
  {d45de031-d473-433f-8411-88e777e7b9a6}, !- Handle
  7,                                      !- Temperature Capacity Multiplier
  15,                                     !- Humidity Capacity Multiplier
  ;                                       !- Carbon Dioxide Capacity Multiplier

OS:ConvergenceLimits,
  {70638e0c-ba4d-4d0b-bbef-ae3c7e723775}, !- Handle
  0;                                      !- Minimum System Timestep {minutes}

OS:RunPeriod,
  {535096a7-7fdf-4b6a-808b-7e1899306c3e}, !- Handle
  Run Period 1,                           !- Name
  1,                                      !- Begin Month
  1,                                      !- Begin Day of Month
  12,                                     !- End Month
  31,                                     !- End Day of Month
  ,                                       !- Use Weather File Holidays and Special Days
  ,                                       !- Use Weather File Daylight Saving Period
  ,                                       !- Apply Weekend Holiday Rule
  ,                                       !- Use Weather File Rain Indicators
  ,                                       !- Use Weather File Snow Indicators
  ;                                       !- Number of Times Runperiod to be Repeated

OS:PerformancePrecisionTradeoffs,
  {4c571dfe-f2c7-47ce-99cf-85de2f008d7d}, !- Handle
  ,                                       !- Use Coil Direct Solutions
  CarrollMRT;                             !- Zone Radiant Exchange Algorithm

OS:WeatherFile,
  {616b4931-7304-4a1b-9141-cbcd8e966781}, !- Handle
  Buffalo Niagara Intl Ap,                !- City
  NY,                                     !- State Province Region
  USA,                                    !- Country
  TMY3,                                   !- Data Source
  725280,                                 !- WMO Number
  42.93,                                  !- Latitude {deg}
  -78.73,                                 !- Longitude {deg}
  -5,                                     !- Time Zone {hr}
  215,                                    !- Elevation {m}
  /Users/nmoore/github/urbanopt-example-geojson-project/example_project/weather/USA_NY_Buffalo-Greater.Buffalo.Intl.AP.725280_TMY3.epw, !- Url
  6B50E0FF,                               !- Checksum
  ,                                       !- Start Date Actual Year
  Sunday;                                 !- Start Day of Week

OS:YearDescription,
  {0e987350-920c-47bc-a709-14e95a8a264c}, !- Handle
  2007,                                   !- Calendar Year
  ,                                       !- Day of Week for Start Day
  ;                                       !- Is Leap Year

OS:Site,
  {7d35cbe6-3c0e-42d6-b1d7-3893e7a27a2b}, !- Handle
  Buffalo Niagara Intl Ap_NY,             !- Name
  42.93,                                  !- Latitude {deg}
  -78.73,                                 !- Longitude {deg}
  -5,                                     !- Time Zone {hr}
  215,                                    !- Elevation {m}
  Suburbs,                                !- Terrain
  Yes;                                    !- Keep Site Location Information

OS:RunPeriodControl:DaylightSavingTime,
  {32355e17-d721-4c5a-bd08-00ba34775843}, !- Handle
  Mar 12,                                 !- Start Date
  Nov 5;                                  !- End Date

OS:Site:GroundTemperature:Shallow,
  {0c392a76-1667-4fc4-820b-6677717a48cc}, !- Handle
  4.30207395723828,                       !- January Surface Ground Temperature {C}
  2.29327249652502,                       !- February Surface Ground Temperature {C}
  2.13240047156047,                       !- March Surface Ground Temperature {C}
  3.08567940719286,                       !- April Surface Ground Temperature {C}
  6.91256312497526,                       !- May Surface Ground Temperature {C}
  10.7216195949507,                       !- June Surface Ground Temperature {C}
  14.0238679822574,                       !- July Surface Ground Temperature {C}
  16.1157611184724,                       !- August Surface Ground Temperature {C}
  16.2934789303462,                       !- September Surface Ground Temperature {C}
  14.5920754632847,                       !- October Surface Ground Temperature {C}
  11.374036348653,                        !- November Surface Ground Temperature {C}
  7.68182621661674;                       !- December Surface Ground Temperature {C}

OS:ThermalZone,
  {576546e4-2212-4dac-9d91-eff587102296}, !- Handle
  conditioned space,                      !- Name
  1,                                      !- Multiplier
  ,                                       !- Ceiling Height {m}
  692.06373070848,                        !- Volume {m3}
  ,                                       !- Floor Area {m2}
  ,                                       !- Zone Inside Convection Algorithm
  ,                                       !- Zone Outside Convection Algorithm
  ,                                       !- Zone Conditioning Equipment List Name
  {848859de-4f24-43fb-b73b-d49645472b0d}, !- Zone Air Inlet Port List
  {ddd34750-f1d8-48af-ba2a-14502212478f}, !- Zone Air Exhaust Port List
  {f34f852c-50d5-4bb3-86d4-f60b333e3ae8}, !- Zone Air Node Name
  {e8846f70-5868-4802-9ed4-cb4e90d8959b}, !- Zone Return Air Port List
  ,                                       !- Primary Daylighting Control Name
  ,                                       !- Fraction of Zone Controlled by Primary Daylighting Control
  ,                                       !- Secondary Daylighting Control Name
  ,                                       !- Fraction of Zone Controlled by Secondary Daylighting Control
  ,                                       !- Illuminance Map Name
  ,                                       !- Group Rendering Name
  {f363b771-f567-4966-b6f9-6d748fa81093}, !- Thermostat Name
  No;                                     !- Use Ideal Air Loads

OS:Node,
  {441fc8bf-1603-48ee-a50b-99ebeede2683}, !- Handle
  Node 1,                                 !- Name
  {f34f852c-50d5-4bb3-86d4-f60b333e3ae8}, !- Inlet Port
  ;                                       !- Outlet Port

OS:Connection,
  {f34f852c-50d5-4bb3-86d4-f60b333e3ae8}, !- Handle
  {576546e4-2212-4dac-9d91-eff587102296}, !- Source Object
  11,                                     !- Outlet Port
  {441fc8bf-1603-48ee-a50b-99ebeede2683}, !- Target Object
  2;                                      !- Inlet Port

OS:PortList,
  {848859de-4f24-43fb-b73b-d49645472b0d}, !- Handle
  {576546e4-2212-4dac-9d91-eff587102296}, !- HVAC Component
  {9cd87e5d-ffb2-48f5-8646-f903297f007f}; !- Port 1

OS:PortList,
  {ddd34750-f1d8-48af-ba2a-14502212478f}, !- Handle
  {576546e4-2212-4dac-9d91-eff587102296}; !- HVAC Component

OS:PortList,
  {e8846f70-5868-4802-9ed4-cb4e90d8959b}, !- Handle
  {576546e4-2212-4dac-9d91-eff587102296}, !- HVAC Component
  {80fe6320-8f3a-4fdc-b7fc-64dbb8571665}; !- Port 1

OS:Sizing:Zone,
  {d701ba9c-7055-4ff0-8fe5-b570bc0637e9}, !- Handle
  {576546e4-2212-4dac-9d91-eff587102296}, !- Zone or ZoneList Name
  SupplyAirTemperature,                   !- Zone Cooling Design Supply Air Temperature Input Method
  14,                                     !- Zone Cooling Design Supply Air Temperature {C}
  11.11,                                  !- Zone Cooling Design Supply Air Temperature Difference {deltaC}
  SupplyAirTemperature,                   !- Zone Heating Design Supply Air Temperature Input Method
  40,                                     !- Zone Heating Design Supply Air Temperature {C}
  11.11,                                  !- Zone Heating Design Supply Air Temperature Difference {deltaC}
  0.0085,                                 !- Zone Cooling Design Supply Air Humidity Ratio {kg-H2O/kg-air}
  0.008,                                  !- Zone Heating Design Supply Air Humidity Ratio {kg-H2O/kg-air}
  ,                                       !- Zone Heating Sizing Factor
  ,                                       !- Zone Cooling Sizing Factor
  DesignDay,                              !- Cooling Design Air Flow Method
  ,                                       !- Cooling Design Air Flow Rate {m3/s}
  ,                                       !- Cooling Minimum Air Flow per Zone Floor Area {m3/s-m2}
  ,                                       !- Cooling Minimum Air Flow {m3/s}
  ,                                       !- Cooling Minimum Air Flow Fraction
  DesignDay,                              !- Heating Design Air Flow Method
  ,                                       !- Heating Design Air Flow Rate {m3/s}
  ,                                       !- Heating Maximum Air Flow per Zone Floor Area {m3/s-m2}
  ,                                       !- Heating Maximum Air Flow {m3/s}
  ,                                       !- Heating Maximum Air Flow Fraction
  No,                                     !- Account for Dedicated Outdoor Air System
  NeutralSupplyAir,                       !- Dedicated Outdoor Air System Control Strategy
  autosize,                               !- Dedicated Outdoor Air Low Setpoint Temperature for Design {C}
  autosize,                               !- Dedicated Outdoor Air High Setpoint Temperature for Design {C}
  Sensible Load Only No Latent Load,      !- Zone Load Sizing Method
  HumidityRatioDifference,                !- Zone Latent Cooling Design Supply Air Humidity Ratio Input Method
  ,                                       !- Zone Dehumidification Design Supply Air Humidity Ratio {kgWater/kgDryAir}
  0.005,                                  !- Zone Cooling Design Supply Air Humidity Ratio Difference {kgWater/kgDryAir}
  HumidityRatioDifference,                !- Zone Latent Heating Design Supply Air Humidity Ratio Input Method
  ,                                       !- Zone Humidification Design Supply Air Humidity Ratio {kgWater/kgDryAir}
  0.005,                                  !- Zone Humidification Design Supply Air Humidity Ratio Difference {kgWater/kgDryAir}
  ,                                       !- Zone Humidistat Dehumidification Set Point Schedule Name
  ,                                       !- Zone Humidistat Humidification Set Point Schedule Name
  ,                                       !- Design Zone Air Distribution Effectiveness in Cooling Mode
  ,                                       !- Design Zone Air Distribution Effectiveness in Heating Mode
  ,                                       !- Design Zone Secondary Recirculation Fraction {dimensionless}
  ,                                       !- Design Minimum Zone Ventilation Efficiency {dimensionless}
  Coincident;                             !- Sizing Option

OS:ZoneHVAC:EquipmentList,
  {3356e7da-a5d5-4bdf-917a-7ef86ef48e86}, !- Handle
  Zone HVAC Equipment List 1,             !- Name
  {576546e4-2212-4dac-9d91-eff587102296}, !- Thermal Zone
  ,                                       !- Load Distribution Scheme
  {eb851948-9c98-42ef-abaa-e8a2c32b4f35}, !- Zone Equipment 1
  1,                                      !- Zone Equipment Cooling Sequence 1
  1,                                      !- Zone Equipment Heating or No-Load Sequence 1
  {05f08784-c668-494d-8fcc-8287cf49c8e3}, !- Zone Equipment Sequential Cooling Fraction Schedule Name 1
  {71024d53-a6e8-479a-af33-97f73c980fda}; !- Zone Equipment Sequential Heating Fraction Schedule Name 1

OS:AdditionalProperties,
  {a13f8be3-4101-437b-85e5-b39c9273e9db}, !- Handle
  {576546e4-2212-4dac-9d91-eff587102296}, !- Object Name
  ObjectType,                             !- Feature Name 1
  String,                                 !- Feature Data Type 1
  conditioned space;                      !- Feature Value 1

OS:Space,
  {a62c7dac-22ce-47ab-978e-765640d73511}, !- Handle
  conditioned space 1,                    !- Name
  ,                                       !- Space Type Name
  ,                                       !- Default Construction Set Name
  ,                                       !- Default Schedule Set Name
  ,                                       !- Direction of Relative North {deg}
  ,                                       !- X Origin {m}
  ,                                       !- Y Origin {m}
  ,                                       !- Z Origin {m}
  ,                                       !- Building Story Name
  {576546e4-2212-4dac-9d91-eff587102296}, !- Thermal Zone Name
  ,                                       !- Part of Total Floor Area
  ,                                       !- Design Specification Outdoor Air Object Name
  ,                                       !- Building Unit Name
  692.06373070848;                        !- Volume {m3}

OS:Schedule:Ruleset,
  {04d4bec0-9fe9-42b6-8941-b086207fc47c}, !- Handle
  heating setpoint,                       !- Name
  {3c882cc2-873f-4ddd-99e0-9ef900d170e9}, !- Schedule Type Limits Name
  {6b083265-b5bd-47dd-861b-a81360443179}; !- Default Day Schedule Name

OS:Schedule:Day,
  {6b083265-b5bd-47dd-861b-a81360443179}, !- Handle
  heating setpoint default day,           !- Name
  {3c882cc2-873f-4ddd-99e0-9ef900d170e9}, !- Schedule Type Limits Name
  ,                                       !- Interpolate to Timestep
  24,                                     !- Hour 1
  0,                                      !- Minute 1
  0;                                      !- Value Until Time 1

OS:Schedule:Rule,
  {b246d260-14cc-4b72-b665-df069f90694b}, !- Handle
  heating setpoint allday rule,           !- Name
  {04d4bec0-9fe9-42b6-8941-b086207fc47c}, !- Schedule Ruleset Name
  0,                                      !- Rule Order
  {ac170c11-48b1-4159-b2e5-232e6dbd9b36}, !- Day Schedule Name
  Yes,                                    !- Apply Sunday
  Yes,                                    !- Apply Monday
  Yes,                                    !- Apply Tuesday
  Yes,                                    !- Apply Wednesday
  Yes,                                    !- Apply Thursday
  Yes,                                    !- Apply Friday
  Yes,                                    !- Apply Saturday
  DateRange,                              !- Date Specification Type
  1,                                      !- Start Month
  1,                                      !- Start Day
  12,                                     !- End Month
  31;                                     !- End Day

OS:Schedule:Day,
  {ac170c11-48b1-4159-b2e5-232e6dbd9b36}, !- Handle
  heating setpoint day,                   !- Name
  {3c882cc2-873f-4ddd-99e0-9ef900d170e9}, !- Schedule Type Limits Name
  ,                                       !- Interpolate to Timestep
  24,                                     !- Hour 1
  0,                                      !- Minute 1
  20;                                     !- Value Until Time 1

OS:Schedule:Ruleset,
  {39b29a7d-ecb2-476a-b1a1-db5e0334f685}, !- Handle
  cooling setpoint,                       !- Name
  {3c882cc2-873f-4ddd-99e0-9ef900d170e9}, !- Schedule Type Limits Name
  {56a179b2-674d-4b2c-bebe-c91152eed71d}; !- Default Day Schedule Name

OS:Schedule:Day,
  {56a179b2-674d-4b2c-bebe-c91152eed71d}, !- Handle
  cooling setpoint default day,           !- Name
  {3c882cc2-873f-4ddd-99e0-9ef900d170e9}, !- Schedule Type Limits Name
  ,                                       !- Interpolate to Timestep
  24,                                     !- Hour 1
  0,                                      !- Minute 1
  0;                                      !- Value Until Time 1

OS:Schedule:Rule,
  {6fd7f994-e777-4786-af9f-4cbeaa3a9bf7}, !- Handle
  cooling setpoint allday rule,           !- Name
  {39b29a7d-ecb2-476a-b1a1-db5e0334f685}, !- Schedule Ruleset Name
  0,                                      !- Rule Order
  {a42d40ae-494a-4e25-a828-abc7b0f9e3b7}, !- Day Schedule Name
  Yes,                                    !- Apply Sunday
  Yes,                                    !- Apply Monday
  Yes,                                    !- Apply Tuesday
  Yes,                                    !- Apply Wednesday
  Yes,                                    !- Apply Thursday
  Yes,                                    !- Apply Friday
  Yes,                                    !- Apply Saturday
  DateRange,                              !- Date Specification Type
  1,                                      !- Start Month
  1,                                      !- Start Day
  12,                                     !- End Month
  31;                                     !- End Day

OS:Schedule:Day,
  {a42d40ae-494a-4e25-a828-abc7b0f9e3b7}, !- Handle
  cooling setpoint day,                   !- Name
  {3c882cc2-873f-4ddd-99e0-9ef900d170e9}, !- Schedule Type Limits Name
  ,                                       !- Interpolate to Timestep
  24,                                     !- Hour 1
  0,                                      !- Minute 1
  25.5555555555556;                       !- Value Until Time 1

OS:ThermostatSetpoint:DualSetpoint,
  {f363b771-f567-4966-b6f9-6d748fa81093}, !- Handle
  conditioned space temperature setpoint, !- Name
  {04d4bec0-9fe9-42b6-8941-b086207fc47c}, !- Heating Setpoint Temperature Schedule Name
  {39b29a7d-ecb2-476a-b1a1-db5e0334f685}, !- Cooling Setpoint Temperature Schedule Name
  0;                                      !- Temperature Difference Between Cutout And Setpoint {deltaC}

OS:ScheduleTypeLimits,
  {3c882cc2-873f-4ddd-99e0-9ef900d170e9}, !- Handle
  Temperature,                            !- Name
  ,                                       !- Lower Limit Value
  ,                                       !- Upper Limit Value
  Continuous,                             !- Numeric Type
  Temperature;                            !- Unit Type

OS:Surface,
  {8209a8d7-3404-4284-990e-c0bef1bab31c}, !- Handle
  Roof1,                                  !- Name
  RoofCeiling,                            !- Surface Type
  {a19f7e3c-ceba-4ab8-bff9-424dde894c3c}, !- Construction Name
  {666fcb52-eb3b-49f0-8589-efedfc52310f}, !- Space Name
  Outdoors,                               !- Outside Boundary Condition
  ,                                       !- Outside Boundary Condition Object
  SunExposed,                             !- Sun Exposure
  WindExposed,                            !- Wind Exposure
  ,                                       !- View Factor to Ground
  ,                                       !- Number of Vertices
  9.8030170292795, 22.3990406761293, 2.4384, !- X,Y,Z Vertex 1 {m}
  9.8030170292795, 11.1328146279089, 8.0715130241102, !- X,Y,Z Vertex 2 {m}
  22.3990406761293, 11.1328146279089, 8.0715130241102, !- X,Y,Z Vertex 3 {m}
  22.3990406761293, 22.3990406761293, 2.4384; !- X,Y,Z Vertex 4 {m}

OS:AdditionalProperties,
  {22f26373-ac83-4cbf-bfd1-19cc19af4606}, !- Handle
  {8209a8d7-3404-4284-990e-c0bef1bab31c}, !- Object Name
  Length,                                 !- Feature Name 1
  Double,                                 !- Feature Data Type 1
  41.325536899113608,                     !- Feature Value 1
  Width,                                  !- Feature Name 2
  Double,                                 !- Feature Data Type 2
  41.325536899113601,                     !- Feature Value 2
  Azimuth,                                !- Feature Name 3
  Integer,                                !- Feature Data Type 3
  0,                                      !- Feature Value 3
  Tilt,                                   !- Feature Name 4
  Double,                                 !- Feature Data Type 4
  0.5,                                    !- Feature Value 4
  SurfaceType,                            !- Feature Name 5
  String,                                 !- Feature Data Type 5
  Roof;                                   !- Feature Value 5

OS:ThermalZone,
  {bb80af00-cd9c-4eba-90de-55bdf20a03dc}, !- Handle
  attic - vented,                         !- Name
  1,                                      !- Multiplier
  ,                                       !- Ceiling Height {m}
  356.389957095237,                       !- Volume {m3}
  ,                                       !- Floor Area {m2}
  ,                                       !- Zone Inside Convection Algorithm
  ,                                       !- Zone Outside Convection Algorithm
  ,                                       !- Zone Conditioning Equipment List Name
  {45e72169-d389-4db0-b876-954d56988fb7}, !- Zone Air Inlet Port List
  {b6888854-5fbf-4023-838e-f3404f78cba7}, !- Zone Air Exhaust Port List
  {cfb9a766-5d08-4609-b9fb-8a99469ebd4c}, !- Zone Air Node Name
  {24503bc1-b2f7-4ec6-bfec-f3aa625cf923}, !- Zone Return Air Port List
  ,                                       !- Primary Daylighting Control Name
  ,                                       !- Fraction of Zone Controlled by Primary Daylighting Control
  ,                                       !- Secondary Daylighting Control Name
  ,                                       !- Fraction of Zone Controlled by Secondary Daylighting Control
  ,                                       !- Illuminance Map Name
  ,                                       !- Group Rendering Name
  ,                                       !- Thermostat Name
  No;                                     !- Use Ideal Air Loads

OS:Node,
  {538bd2a2-3e9e-4404-aaf8-9d1646306f89}, !- Handle
  Node 2,                                 !- Name
  {cfb9a766-5d08-4609-b9fb-8a99469ebd4c}, !- Inlet Port
  ;                                       !- Outlet Port

OS:Connection,
  {cfb9a766-5d08-4609-b9fb-8a99469ebd4c}, !- Handle
  {bb80af00-cd9c-4eba-90de-55bdf20a03dc}, !- Source Object
  11,                                     !- Outlet Port
  {538bd2a2-3e9e-4404-aaf8-9d1646306f89}, !- Target Object
  2;                                      !- Inlet Port

OS:PortList,
  {45e72169-d389-4db0-b876-954d56988fb7}, !- Handle
  {bb80af00-cd9c-4eba-90de-55bdf20a03dc}; !- HVAC Component

OS:PortList,
  {b6888854-5fbf-4023-838e-f3404f78cba7}, !- Handle
  {bb80af00-cd9c-4eba-90de-55bdf20a03dc}; !- HVAC Component

OS:PortList,
  {24503bc1-b2f7-4ec6-bfec-f3aa625cf923}, !- Handle
  {bb80af00-cd9c-4eba-90de-55bdf20a03dc}; !- HVAC Component

OS:Sizing:Zone,
  {295293c4-53da-454e-a5c0-1ff72a33e928}, !- Handle
  {bb80af00-cd9c-4eba-90de-55bdf20a03dc}, !- Zone or ZoneList Name
  SupplyAirTemperature,                   !- Zone Cooling Design Supply Air Temperature Input Method
  14,                                     !- Zone Cooling Design Supply Air Temperature {C}
  11.11,                                  !- Zone Cooling Design Supply Air Temperature Difference {deltaC}
  SupplyAirTemperature,                   !- Zone Heating Design Supply Air Temperature Input Method
  40,                                     !- Zone Heating Design Supply Air Temperature {C}
  11.11,                                  !- Zone Heating Design Supply Air Temperature Difference {deltaC}
  0.0085,                                 !- Zone Cooling Design Supply Air Humidity Ratio {kg-H2O/kg-air}
  0.008,                                  !- Zone Heating Design Supply Air Humidity Ratio {kg-H2O/kg-air}
  ,                                       !- Zone Heating Sizing Factor
  ,                                       !- Zone Cooling Sizing Factor
  DesignDay,                              !- Cooling Design Air Flow Method
  ,                                       !- Cooling Design Air Flow Rate {m3/s}
  ,                                       !- Cooling Minimum Air Flow per Zone Floor Area {m3/s-m2}
  ,                                       !- Cooling Minimum Air Flow {m3/s}
  ,                                       !- Cooling Minimum Air Flow Fraction
  DesignDay,                              !- Heating Design Air Flow Method
  ,                                       !- Heating Design Air Flow Rate {m3/s}
  ,                                       !- Heating Maximum Air Flow per Zone Floor Area {m3/s-m2}
  ,                                       !- Heating Maximum Air Flow {m3/s}
  ,                                       !- Heating Maximum Air Flow Fraction
  No,                                     !- Account for Dedicated Outdoor Air System
  NeutralSupplyAir,                       !- Dedicated Outdoor Air System Control Strategy
  autosize,                               !- Dedicated Outdoor Air Low Setpoint Temperature for Design {C}
  autosize,                               !- Dedicated Outdoor Air High Setpoint Temperature for Design {C}
  Sensible Load Only No Latent Load,      !- Zone Load Sizing Method
  HumidityRatioDifference,                !- Zone Latent Cooling Design Supply Air Humidity Ratio Input Method
  ,                                       !- Zone Dehumidification Design Supply Air Humidity Ratio {kgWater/kgDryAir}
  0.005,                                  !- Zone Cooling Design Supply Air Humidity Ratio Difference {kgWater/kgDryAir}
  HumidityRatioDifference,                !- Zone Latent Heating Design Supply Air Humidity Ratio Input Method
  ,                                       !- Zone Humidification Design Supply Air Humidity Ratio {kgWater/kgDryAir}
  0.005,                                  !- Zone Humidification Design Supply Air Humidity Ratio Difference {kgWater/kgDryAir}
  ,                                       !- Zone Humidistat Dehumidification Set Point Schedule Name
  ,                                       !- Zone Humidistat Humidification Set Point Schedule Name
  ,                                       !- Design Zone Air Distribution Effectiveness in Cooling Mode
  ,                                       !- Design Zone Air Distribution Effectiveness in Heating Mode
  ,                                       !- Design Zone Secondary Recirculation Fraction {dimensionless}
  ,                                       !- Design Minimum Zone Ventilation Efficiency {dimensionless}
  Coincident;                             !- Sizing Option

OS:ZoneHVAC:EquipmentList,
  {c94d6ee9-2387-41e8-ac7f-6af03105979b}, !- Handle
  Zone HVAC Equipment List 2,             !- Name
  {bb80af00-cd9c-4eba-90de-55bdf20a03dc}; !- Thermal Zone

OS:AdditionalProperties,
  {b652a02d-3576-4006-9adb-16df8cbfc8df}, !- Handle
  {bb80af00-cd9c-4eba-90de-55bdf20a03dc}, !- Object Name
  ObjectType,                             !- Feature Name 1
  String,                                 !- Feature Data Type 1
  attic - vented;                         !- Feature Value 1

OS:Space,
  {666fcb52-eb3b-49f0-8589-efedfc52310f}, !- Handle
  attic - vented 1,                       !- Name
  ,                                       !- Space Type Name
  ,                                       !- Default Construction Set Name
  ,                                       !- Default Schedule Set Name
  ,                                       !- Direction of Relative North {deg}
  ,                                       !- X Origin {m}
  ,                                       !- Y Origin {m}
  ,                                       !- Z Origin {m}
  ,                                       !- Building Story Name
  {bb80af00-cd9c-4eba-90de-55bdf20a03dc}, !- Thermal Zone Name
  ,                                       !- Part of Total Floor Area
  ,                                       !- Design Specification Outdoor Air Object Name
  ,                                       !- Building Unit Name
  356.389957095237;                       !- Volume {m3}

OS:Material,
  {cf7624a7-a759-4d97-badf-0c862a381829}, !- Handle
  asphalt or fiberglass shingles,         !- Name
  Rough,                                  !- Roughness
  0.00635,                                !- Thickness {m}
  0.162714,                               !- Conductivity {W/m-K}
  1121.4,                                 !- Density {kg/m3}
  1465.45,                                !- Specific Heat {J/kg-K}
  0.9,                                    !- Thermal Absorptance
  0.85,                                   !- Solar Absorptance