
OS:Version,
  {015dde27-4d48-47c9-a9db-c69f047e8e07}, !- Handle
  3.10.0;                                 !- Version Identifier

OS:SimulationControl,
  {8b4a3c94-29db-470b-8a6e-160bb68030c5}, !- Handle
  ,                                       !- Do Zone Sizing Calculation
  ,                                       !- Do System Sizing Calculation
  ,                                       !- Do Plant Sizing Calculation
  No;                                     !- Run Simulation for Sizing Periods

OS:Timestep,
  {72535ef8-a21f-4d60-892e-0aec29e3ed53}, !- Handle
  1;                                      !- Number of Timesteps per Hour

OS:ShadowCalculation,
  {6bbabf9e-904e-42cf-be38-e7d7424e1a57}, !- Handle
  PolygonClipping,                        !- Shading Calculation Method
  ,                                       !- Shading Calculation Update Frequency Method
  20,                                     !- Shading Calculation Update Frequency
  200,                                    !- Maximum Figures in Shadow Overlap Calculations
  ,                                       !- Polygon Clipping Algorithm
  512,                                    !- Pixel Counting Resolution
  ,                                       !- Sky Diffuse Modeling Algorithm
  No,                                     !- Output External Shading Calculation Results
  No,                                     !- Disable Self-Shading Within Shading Zone Groups
  No;                                     !- Disable Self-Shading From Shading Zone Groups to Other Zones

OS:SurfaceConvectionAlgorithm:Outside,
  {e549e7cc-5067-426a-ba79-1f6c9e52dfe0}, !- Handle
  DOE-2;                                  !- Algorithm

OS:SurfaceConvectionAlgorithm:Inside,
  {486ed265-41fb-47aa-9018-672d49107632}, !- Handle
  TARP;                                   !- Algorithm

OS:ZoneCapacitanceMultiplier:ResearchSpecial,
  {af68325a-f2d2-48c7-be35-ecbd0b71dcd7}, !- Handle
  7,                                      !- Temperature Capacity Multiplier
  15,                                     !- Humidity Capacity Multiplier
  ;                                       !- Carbon Dioxide Capacity Multiplier

OS:ConvergenceLimits,
  {a47dbd3c-852b-44b1-a55e-e507e100f306}, !- Handle
  0;                                      !- Minimum System Timestep {minutes}

OS:RunPeriod,
  {e00e9e9c-1b7a-43b4-8038-49e798380b1b}, !- Handle
  Run Period 1,                           !- Name
  1,                                      !- Begin Month
  1,                                      !- Begin Day of Month
  12,                                     !- End Month
  31,                                     !- End Day of Month
  ,                                       !- Use Weather File Holidays and Special Days
  ,                                       !- Use Weather File Daylight Saving Period
  ,                                       !- Apply Weekend Holiday Rule
  ,                                       !- Use Weather File Rain Indicators
  ,                                       !- Use Weather File Snow Indicators
  ;                                       !- Number of Times Runperiod to be Repeated

OS:PerformancePrecisionTradeoffs,
  {a38f6bdf-71e5-4adf-8957-348bad9287c3}, !- Handle
  ,                                       !- Use Coil Direct Solutions
  CarrollMRT;                             !- Zone Radiant Exchange Algorithm

OS:WeatherFile,
  {dcffca5e-ed46-4fd9-b6d0-7e5c3429a709}, !- Handle
  Buffalo Niagara Intl Ap,                !- City
  NY,                                     !- State Province Region
  USA,                                    !- Country
  TMY3,                                   !- Data Source
  725280,                                 !- WMO Number
  42.93,                                  !- Latitude {deg}
  -78.73,                                 !- Longitude {deg}
  -5,                                     !- Time Zone {hr}
  215,                                    !- Elevation {m}
  /Users/nmoore/github/urbanopt-example-geojson-project/example_project/weather/USA_NY_Buffalo-Greater.Buffalo.Intl.AP.725280_TMY3.epw, !- Url
  6B50E0FF,                               !- Checksum
  ,                                       !- Start Date Actual Year
  Sunday;                                 !- Start Day of Week

OS:YearDescription,
  {10bcb840-fe5d-4149-b10d-bc64d2e63132}, !- Handle
  2007,                                   !- Calendar Year
  ,                                       !- Day of Week for Start Day
  ;                                       !- Is Leap Year

OS:Site,
  {a2d38c37-195c-42e7-b10d-16d4ec30ff0c}, !- Handle
  Buffalo Niagara Intl Ap_NY,             !- Name
  42.93,                                  !- Latitude {deg}
  -78.73,                                 !- Longitude {deg}
  -5,                                     !- Time Zone {hr}
  215,                                    !- Elevation {m}
  Suburbs,                                !- Terrain
  Yes;                                    !- Keep Site Location Information

OS:RunPeriodControl:DaylightSavingTime,
  {8325c6d0-1eea-48bf-a47c-53d8beab6cc1}, !- Handle
  Mar 12,                                 !- Start Date
  Nov 5;                                  !- End Date

OS:Site:GroundTemperature:Shallow,
  {8391d0e0-f7f8-435a-a08c-15ad957f9cdc}, !- Handle
  4.30207395723828,                       !- January Surface Ground Temperature {C}
  2.29327249652502,                       !- February Surface Ground Temperature {C}
  2.13240047156047,                       !- March Surface Ground Temperature {C}
  3.08567940719286,                       !- April Surface Ground Temperature {C}
  6.91256312497526,                       !- May Surface Ground Temperature {C}
  10.7216195949507,                       !- June Surface Ground Temperature {C}
  14.0238679822574,                       !- July Surface Ground Temperature {C}
  16.1157611184724,                       !- August Surface Ground Temperature {C}
  16.2934789303462,                       !- September Surface Ground Temperature {C}
  14.5920754632847,                       !- October Surface Ground Temperature {C}
  11.374036348653,                        !- November Surface Ground Temperature {C}
  7.68182621661674;                       !- December Surface Ground Temperature {C}

OS:ThermalZone,
  {843b052c-d592-4067-8a1d-cbcadd2afedd}, !- Handle
  conditioned space,                      !- Name
  1,                                      !- Multiplier
  ,                                       !- Ceiling Height {m}
  692.06373070848,                        !- Volume {m3}
  ,                                       !- Floor Area {m2}
  ,                                       !- Zone Inside Convection Algorithm
  ,                                       !- Zone Outside Convection Algorithm
  ,                                       !- Zone Conditioning Equipment List Name
  {95d6a9a1-be08-4b12-b5eb-eabfcec8c76b}, !- Zone Air Inlet Port List
  {783484da-1a96-4495-9aa2-2cf1e80f5cf0}, !- Zone Air Exhaust Port List
  {d14c9961-55aa-4117-b78f-4168d9d8b6bd}, !- Zone Air Node Name
  {68792054-73e4-4f8b-a872-1ad820bd070b}, !- Zone Return Air Port List
  ,                                       !- Primary Daylighting Control Name
  ,                                       !- Fraction of Zone Controlled by Primary Daylighting Control
  ,                                       !- Secondary Daylighting Control Name
  ,                                       !- Fraction of Zone Controlled by Secondary Daylighting Control
  ,                                       !- Illuminance Map Name
  ,                                       !- Group Rendering Name
  {82a1e3c1-7715-4818-a972-b611daca2c99}, !- Thermostat Name
  No;                                     !- Use Ideal Air Loads

OS:Node,
  {0fa3f6c1-3600-4ac0-8fa5-5ee5d8d558c7}, !- Handle
  Node 1,                                 !- Name
  {d14c9961-55aa-4117-b78f-4168d9d8b6bd}, !- Inlet Port
  ;                                       !- Outlet Port

OS:Connection,
  {d14c9961-55aa-4117-b78f-4168d9d8b6bd}, !- Handle
  {843b052c-d592-4067-8a1d-cbcadd2afedd}, !- Source Object
  11,                                     !- Outlet Port
  {0fa3f6c1-3600-4ac0-8fa5-5ee5d8d558c7}, !- Target Object
  2;                                      !- Inlet Port

OS:PortList,
  {95d6a9a1-be08-4b12-b5eb-eabfcec8c76b}, !- Handle
  {843b052c-d592-4067-8a1d-cbcadd2afedd}, !- HVAC Component
  {53b8590c-b7a0-4c42-bd90-6839647ebfb4}; !- Port 1

OS:PortList,
  {783484da-1a96-4495-9aa2-2cf1e80f5cf0}, !- Handle
  {843b052c-d592-4067-8a1d-cbcadd2afedd}; !- HVAC Component

OS:PortList,
  {68792054-73e4-4f8b-a872-1ad820bd070b}, !- Handle
  {843b052c-d592-4067-8a1d-cbcadd2afedd}, !- HVAC Component
  {313746c7-61f0-42be-ae2a-51d51ab78a53}; !- Port 1

OS:Sizing:Zone,
  {4795ed88-5c26-4e15-b5e4-fd60c3810a8b}, !- Handle
  {843b052c-d592-4067-8a1d-cbcadd2afedd}, !- Zone or ZoneList Name
  SupplyAirTemperature,                   !- Zone Cooling Design Supply Air Temperature Input Method
  14,                                     !- Zone Cooling Design Supply Air Temperature {C}
  11.11,                                  !- Zone Cooling Design Supply Air Temperature Difference {deltaC}
  SupplyAirTemperature,                   !- Zone Heating Design Supply Air Temperature Input Method
  40,                                     !- Zone Heating Design Supply Air Temperature {C}
  11.11,                                  !- Zone Heating Design Supply Air Temperature Difference {deltaC}
  0.0085,                                 !- Zone Cooling Design Supply Air Humidity Ratio {kg-H2O/kg-air}
  0.008,                                  !- Zone Heating Design Supply Air Humidity Ratio {kg-H2O/kg-air}
  ,                                       !- Zone Heating Sizing Factor
  ,                                       !- Zone Cooling Sizing Factor
  DesignDay,                              !- Cooling Design Air Flow Method
  ,                                       !- Cooling Design Air Flow Rate {m3/s}
  ,                                       !- Cooling Minimum Air Flow per Zone Floor Area {m3/s-m2}
  ,                                       !- Cooling Minimum Air Flow {m3/s}
  ,                                       !- Cooling Minimum Air Flow Fraction
  DesignDay,                              !- Heating Design Air Flow Method
  ,                                       !- Heating Design Air Flow Rate {m3/s}
  ,                                       !- Heating Maximum Air Flow per Zone Floor Area {m3/s-m2}
  ,                                       !- Heating Maximum Air Flow {m3/s}
  ,                                       !- Heating Maximum Air Flow Fraction
  No,                                     !- Account for Dedicated Outdoor Air System
  NeutralSupplyAir,                       !- Dedicated Outdoor Air System Control Strategy
  autosize,                               !- Dedicated Outdoor Air Low Setpoint Temperature for Design {C}
  autosize,                               !- Dedicated Outdoor Air High Setpoint Temperature for Design {C}
  Sensible Load Only No Latent Load,      !- Zone Load Sizing Method
  HumidityRatioDifference,                !- Zone Latent Cooling Design Supply Air Humidity Ratio Input Method
  ,                                       !- Zone Dehumidification Design Supply Air Humidity Ratio {kgWater/kgDryAir}
  0.005,                                  !- Zone Cooling Design Supply Air Humidity Ratio Difference {kgWater/kgDryAir}
  HumidityRatioDifference,                !- Zone Latent Heating Design Supply Air Humidity Ratio Input Method
  ,                                       !- Zone Humidification Design Supply Air Humidity Ratio {kgWater/kgDryAir}
  0.005,                                  !- Zone Humidification Design Supply Air Humidity Ratio Difference {kgWater/kgDryAir}
  ,                                       !- Zone Humidistat Dehumidification Set Point Schedule Name
  ,                                       !- Zone Humidistat Humidification Set Point Schedule Name
  ,                                       !- Design Zone Air Distribution Effectiveness in Cooling Mode
  ,                                       !- Design Zone Air Distribution Effectiveness in Heating Mode
  ,                                       !- Design Zone Secondary Recirculation Fraction {dimensionless}
  ,                                       !- Design Minimum Zone Ventilation Efficiency {dimensionless}
  Coincident;                             !- Sizing Option

OS:ZoneHVAC:EquipmentList,
  {86690773-20f4-480d-bd93-945596bebb38}, !- Handle
  Zone HVAC Equipment List 1,             !- Name
  {843b052c-d592-4067-8a1d-cbcadd2afedd}, !- Thermal Zone
  ,                                       !- Load Distribution Scheme
  {096792fc-9d30-488b-9610-7d3fab34ffd7}, !- Zone Equipment 1
  1,                                      !- Zone Equipment Cooling Sequence 1
  1,                                      !- Zone Equipment Heating or No-Load Sequence 1
  {da487bd8-764c-433b-b3ea-7430a1dcc648}, !- Zone Equipment Sequential Cooling Fraction Schedule Name 1
  {60373ec1-b20b-4e0f-a249-aded7311c1cd}; !- Zone Equipment Sequential Heating Fraction Schedule Name 1

OS:AdditionalProperties,
  {c7928b83-5501-48e2-8b35-6be2ffdb4d0f}, !- Handle
  {843b052c-d592-4067-8a1d-cbcadd2afedd}, !- Object Name
  ObjectType,                             !- Feature Name 1
  String,                                 !- Feature Data Type 1
  conditioned space;                      !- Feature Value 1

OS:Space,
  {c52974e7-369a-420a-af21-b658a8ff0cd9}, !- Handle
  conditioned space 1,                    !- Name
  ,                                       !- Space Type Name
  ,                                       !- Default Construction Set Name
  ,                                       !- Default Schedule Set Name
  ,                                       !- Direction of Relative North {deg}
  ,                                       !- X Origin {m}
  ,                                       !- Y Origin {m}
  ,                                       !- Z Origin {m}
  ,                                       !- Building Story Name
  {843b052c-d592-4067-8a1d-cbcadd2afedd}, !- Thermal Zone Name
  ,                                       !- Part of Total Floor Area
  ,                                       !- Design Specification Outdoor Air Object Name
  ,                                       !- Building Unit Name
  692.06373070848;                        !- Volume {m3}

OS:Schedule:Ruleset,
  {be1e1695-baf7-4a76-a95f-f3244d81b1af}, !- Handle
  heating setpoint,                       !- Name
  {f5a7a289-c797-4857-a31c-01b0af3ad5c8}, !- Schedule Type Limits Name
  {71d76b83-4e56-4107-88a9-11b7fb8a2be2}; !- Default Day Schedule Name

OS:Schedule:Day,
  {71d76b83-4e56-4107-88a9-11b7fb8a2be2}, !- Handle
  heating setpoint default day,           !- Name
  {f5a7a289-c797-4857-a31c-01b0af3ad5c8}, !- Schedule Type Limits Name
  ,                                       !- Interpolate to Timestep
  24,                                     !- Hour 1
  0,                                      !- Minute 1
  0;                                      !- Value Until Time 1

OS:Schedule:Rule,
  {977bcae7-21f5-4a03-87b6-6d1ce1f27db8}, !- Handle
  heating setpoint allday rule,           !- Name
  {be1e1695-baf7-4a76-a95f-f3244d81b1af}, !- Schedule Ruleset Name
  0,                                      !- Rule Order
  {5853b217-c571-49b5-8e27-8871d30d3a11}, !- Day Schedule Name
  Yes,                                    !- Apply Sunday
  Yes,                                    !- Apply Monday
  Yes,                                    !- Apply Tuesday
  Yes,                                    !- Apply Wednesday
  Yes,                                    !- Apply Thursday
  Yes,                                    !- Apply Friday
  Yes,                                    !- Apply Saturday
  DateRange,                              !- Date Specification Type
  1,                                      !- Start Month
  1,                                      !- Start Day
  12,                                     !- End Month
  31;                                     !- End Day

OS:Schedule:Day,
  {5853b217-c571-49b5-8e27-8871d30d3a11}, !- Handle
  heating setpoint day,                   !- Name
  {f5a7a289-c797-4857-a31c-01b0af3ad5c8}, !- Schedule Type Limits Name
  ,                                       !- Interpolate to Timestep
  24,                                     !- Hour 1
  0,                                      !- Minute 1
  20;                                     !- Value Until Time 1

OS:Schedule:Ruleset,
  {7382ca84-ebd1-4b81-8188-9b7745672ce5}, !- Handle
  cooling setpoint,                       !- Name
  {f5a7a289-c797-4857-a31c-01b0af3ad5c8}, !- Schedule Type Limits Name
  {9ebfa011-6f77-4570-9ad1-c3c878ddd1e9}; !- Default Day Schedule Name

OS:Schedule:Day,
  {9ebfa011-6f77-4570-9ad1-c3c878ddd1e9}, !- Handle
  cooling setpoint default day,           !- Name
  {f5a7a289-c797-4857-a31c-01b0af3ad5c8}, !- Schedule Type Limits Name
  ,                                       !- Interpolate to Timestep
  24,                                     !- Hour 1
  0,                                      !- Minute 1
  0;                                      !- Value Until Time 1

OS:Schedule:Rule,
  {3ac55b7e-2afa-4391-a80f-93847286db2c}, !- Handle
  cooling setpoint allday rule,           !- Name
  {7382ca84-ebd1-4b81-8188-9b7745672ce5}, !- Schedule Ruleset Name
  0,                                      !- Rule Order
  {232365d6-c553-46c3-95d9-b573ffd26ef2}, !- Day Schedule Name
  Yes,                                    !- Apply Sunday
  Yes,                                    !- Apply Monday
  Yes,                                    !- Apply Tuesday
  Yes,                                    !- Apply Wednesday
  Yes,                                    !- Apply Thursday
  Yes,                                    !- Apply Friday
  Yes,                                    !- Apply Saturday
  DateRange,                              !- Date Specification Type
  1,                                      !- Start Month
  1,                                      !- Start Day
  12,                                     !- End Month
  31;                                     !- End Day

OS:Schedule:Day,
  {232365d6-c553-46c3-95d9-b573ffd26ef2}, !- Handle
  cooling setpoint day,                   !- Name
  {f5a7a289-c797-4857-a31c-01b0af3ad5c8}, !- Schedule Type Limits Name
  ,                                       !- Interpolate to Timestep
  24,                                     !- Hour 1
  0,                                      !- Minute 1
  25.5555555555556;                       !- Value Until Time 1

OS:ThermostatSetpoint:DualSetpoint,
  {82a1e3c1-7715-4818-a972-b611daca2c99}, !- Handle
  conditioned space temperature setpoint, !- Name
  {be1e1695-baf7-4a76-a95f-f3244d81b1af}, !- Heating Setpoint Temperature Schedule Name
  {7382ca84-ebd1-4b81-8188-9b7745672ce5}, !- Cooling Setpoint Temperature Schedule Name
  0;                                      !- Temperature Difference Between Cutout And Setpoint {deltaC}

OS:ScheduleTypeLimits,
  {f5a7a289-c797-4857-a31c-01b0af3ad5c8}, !- Handle
  Temperature,                            !- Name
  ,                                       !- Lower Limit Value
  ,                                       !- Upper Limit Value
  Continuous,                             !- Numeric Type
  Temperature;                            !- Unit Type

OS:Surface,
  {ef645cda-5e81-421d-b503-9ff83586977e}, !- Handle
  Roof1,                                  !- Name
  RoofCeiling,                            !- Surface Type
  {124f7779-bc8f-4595-adee-46c413f723d8}, !- Construction Name
  {d9f59fe4-42cd-4a26-b91b-38c898f6f484}, !- Space Name
  Outdoors,                               !- Outside Boundary Condition
  ,                                       !- Outside Boundary Condition Object
  SunExposed,                             !- Sun Exposure
  WindExposed,                            !- Wind Exposure
  ,                                       !- View Factor to Ground
  ,                                       !- Number of Vertices
  9.8030170292795, 22.3990406761293, 2.4384, !- X,Y,Z Vertex 1 {m}
  9.8030170292795, 11.1328146279089, 8.0715130241102, !- X,Y,Z Vertex 2 {m}
  22.3990406761293, 11.1328146279089, 8.0715130241102, !- X,Y,Z Vertex 3 {m}
  22.3990406761293, 22.3990406761293, 2.4384; !- X,Y,Z Vertex 4 {m}

OS:AdditionalProperties,
  {59a8708d-9f61-4489-9d92-ecff7ce18e25}, !- Handle
  {ef645cda-5e81-421d-b503-9ff83586977e}, !- Object Name
  Length,                                 !- Feature Name 1
  Double,                                 !- Feature Data Type 1
  41.325536899113608,                     !- Feature Value 1
  Width,                                  !- Feature Name 2
  Double,                                 !- Feature Data Type 2
  41.325536899113601,                     !- Feature Value 2
  Azimuth,                                !- Feature Name 3
  Integer,                                !- Feature Data Type 3
  0,                                      !- Feature Value 3
  Tilt,                                   !- Feature Name 4
  Double,                                 !- Feature Data Type 4
  0.5,                                    !- Feature Value 4
  SurfaceType,                            !- Feature Name 5
  String,                                 !- Feature Data Type 5
  Roof;                                   !- Feature Value 5

OS:ThermalZone,
  {7d87f209-cecc-48fb-bde6-51f7b46ed5d0}, !- Handle
  attic - vented,                         !- Name
  1,                                      !- Multiplier
  ,                                       !- Ceiling Height {m}
  356.390921899745,                       !- Volume {m3}
  ,                                       !- Floor Area {m2}
  ,                                       !- Zone Inside Convection Algorithm
  ,                                       !- Zone Outside Convection Algorithm
  ,                                       !- Zone Conditioning Equipment List Name
  {be13aef4-2bbd-4877-85d8-4160d5081db1}, !- Zone Air Inlet Port List
  {62b2b072-f66a-448c-88da-a915cd5cc2c2}, !- Zone Air Exhaust Port List
  {93656576-3129-40cc-b032-44173fa76163}, !- Zone Air Node Name
  {4ddcbb4d-7ac8-4fac-92c6-cdb35f2015b3}, !- Zone Return Air Port List
  ,                                       !- Primary Daylighting Control Name
  ,                                       !- Fraction of Zone Controlled by Primary Daylighting Control
  ,                                       !- Secondary Daylighting Control Name
  ,                                       !- Fraction of Zone Controlled by Secondary Daylighting Control
  ,                                       !- Illuminance Map Name
  ,                                       !- Group Rendering Name
  ,                                       !- Thermostat Name
  No;                                     !- Use Ideal Air Loads

OS:Node,
  {ffe16a62-06a2-454d-9d8a-99ec1dff9828}, !- Handle
  Node 2,                                 !- Name
  {93656576-3129-40cc-b032-44173fa76163}, !- Inlet Port
  ;                                       !- Outlet Port

OS:Connection,
  {93656576-3129-40cc-b032-44173fa76163}, !- Handle
  {7d87f209-cecc-48fb-bde6-51f7b46ed5d0}, !- Source Object
  11,                                     !- Outlet Port
  {ffe16a62-06a2-454d-9d8a-99ec1dff9828}, !- Target Object
  2;                                      !- Inlet Port

OS:PortList,
  {be13aef4-2bbd-4877-85d8-4160d5081db1}, !- Handle
  {7d87f209-cecc-48fb-bde6-51f7b46ed5d0}; !- HVAC Component

OS:PortList,
  {62b2b072-f66a-448c-88da-a915cd5cc2c2}, !- Handle
  {7d87f209-cecc-48fb-bde6-51f7b46ed5d0}; !- HVAC Component

OS:PortList,
  {4ddcbb4d-7ac8-4fac-92c6-cdb35f2015b3}, !- Handle
  {7d87f209-cecc-48fb-bde6-51f7b46ed5d0}; !- HVAC Component

OS:Sizing:Zone,
  {0a079cfe-011c-46b7-bc41-78c602b00dba}, !- Handle
  {7d87f209-cecc-48fb-bde6-51f7b46ed5d0}, !- Zone or ZoneList Name
  SupplyAirTemperature,                   !- Zone Cooling Design Supply Air Temperature Input Method
  14,                                     !- Zone Cooling Design Supply Air Temperature {C}
  11.11,                                  !- Zone Cooling Design Supply Air Temperature Difference {deltaC}
  SupplyAirTemperature,                   !- Zone Heating Design Supply Air Temperature Input Method
  40,                                     !- Zone Heating Design Supply Air Temperature {C}
  11.11,                                  !- Zone Heating Design Supply Air Temperature Difference {deltaC}
  0.0085,                                 !- Zone Cooling Design Supply Air Humidity Ratio {kg-H2O/kg-air}
  0.008,                                  !- Zone Heating Design Supply Air Humidity Ratio {kg-H2O/kg-air}
  ,                                       !- Zone Heating Sizing Factor
  ,                                       !- Zone Cooling Sizing Factor
  DesignDay,                              !- Cooling Design Air Flow Method
  ,                                       !- Cooling Design Air Flow Rate {m3/s}
  ,                                       !- Cooling Minimum Air Flow per Zone Floor Area {m3/s-m2}
  ,                                       !- Cooling Minimum Air Flow {m3/s}
  ,                                       !- Cooling Minimum Air Flow Fraction
  DesignDay,                              !- Heating Design Air Flow Method
  ,                                       !- Heating Design Air Flow Rate {m3/s}
  ,                                       !- Heating Maximum Air Flow per Zone Floor Area {m3/s-m2}
  ,                                       !- Heating Maximum Air Flow {m3/s}
  ,                                       !- Heating Maximum Air Flow Fraction
  No,                                     !- Account for Dedicated Outdoor Air System
  NeutralSupplyAir,                       !- Dedicated Outdoor Air System Control Strategy
  autosize,                               !- Dedicated Outdoor Air Low Setpoint Temperature for Design {C}
  autosize,                               !- Dedicated Outdoor Air High Setpoint Temperature for Design {C}
  Sensible Load Only No Latent Load,      !- Zone Load Sizing Method
  HumidityRatioDifference,                !- Zone Latent Cooling Design Supply Air Humidity Ratio Input Method
  ,                                       !- Zone Dehumidification Design Supply Air Humidity Ratio {kgWater/kgDryAir}
  0.005,                                  !- Zone Cooling Design Supply Air Humidity Ratio Difference {kgWater/kgDryAir}
  HumidityRatioDifference,                !- Zone Latent Heating Design Supply Air Humidity Ratio Input Method
  ,                                       !- Zone Humidification Design Supply Air Humidity Ratio {kgWater/kgDryAir}
  0.005,                                  !- Zone Humidification Design Supply Air Humidity Ratio Difference {kgWater/kgDryAir}
  ,                                       !- Zone Humidistat Dehumidification Set Point Schedule Name
  ,                                       !- Zone Humidistat Humidification Set Point Schedule Name
  ,                                       !- Design Zone Air Distribution Effectiveness in Cooling Mode
  ,                                       !- Design Zone Air Distribution Effectiveness in Heating Mode
  ,                                       !- Design Zone Secondary Recirculation Fraction {dimensionless}
  ,                                       !- Design Minimum Zone Ventilation Efficiency {dimensionless}
  Coincident;                             !- Sizing Option

OS:ZoneHVAC:EquipmentList,
  {4232ad56-7fd2-4a6b-a8bd-698aaf70b6f6}, !- Handle
  Zone HVAC Equipment List 2,             !- Name
  {7d87f209-cecc-48fb-bde6-51f7b46ed5d0}; !- Thermal Zone

OS:AdditionalProperties,
  {030c0b6c-4275-4185-a033-62eee9d16e0a}, !- Handle
  {7d87f209-cecc-48fb-bde6-51f7b46ed5d0}, !- Object Name
  ObjectType,                             !- Feature Name 1
  String,                                 !- Feature Data Type 1
  attic - vented;                         !- Feature Value 1

OS:Space,
  {d9f59fe4-42cd-4a26-b91b-38c898f6f484}, !- Handle
  attic - vented 1,                       !- Name
  ,                                       !- Space Type Name
  ,                                       !- Default Construction Set Name
  ,                                       !- Default Schedule Set Name
  ,                                       !- Direction of Relative North {deg}
  ,                                       !- X Origin {m}
  ,                                       !- Y Origin {m}
  ,                                       !- Z Origin {m}
  ,                                       !- Building Story Name
  {7d87f209-cecc-48fb-bde6-51f7b46ed5d0}, !- Thermal Zone Name
  ,                                       !- Part of Total Floor Area
  ,                                       !- Design Specification Outdoor Air Object Name
  ,                                       !- Building Unit Name
  356.390921899745;                       !- Volume {m3}

OS:Material,
  {9ab4cbbe-e0cd-4ea4-a614-9b5f664cff4e}, !- Handle
  asphalt or fiberglass shingles,         !- Name
  Rough,                                  !- Roughness
  0.00635,                                !- Thickness {m}
  0.162714,                               !- Conductivity {W/m-K}
  1121.4,                                 !- Density {kg/m3}
  1465.45,                                !- Specific Heat {J/kg-K}
  0.9,                                    !- Thermal Absorptance
  0.85,                                   !- Solar Absorptance