
OS:Version,
  {b83a5ec4-89d5-459a-b0c7-ee2201d41edb}, !- Handle
  3.10.0;                                 !- Version Identifier

OS:SimulationControl,
  {e257969c-8335-44fa-8732-3512dcabd8dc}, !- Handle
  ,                                       !- Do Zone Sizing Calculation
  ,                                       !- Do System Sizing Calculation
  ,                                       !- Do Plant Sizing Calculation
  No;                                     !- Run Simulation for Sizing Periods

OS:Timestep,
  {eb6ecc90-d491-4832-9f1e-303da4176091}, !- Handle
  1;                                      !- Number of Timesteps per Hour

OS:ShadowCalculation,
  {fe3fc35d-6acf-4813-a878-5203cb674666}, !- Handle
  PolygonClipping,                        !- Shading Calculation Method
  ,                                       !- Shading Calculation Update Frequency Method
  20,                                     !- Shading Calculation Update Frequency
  200,                                    !- Maximum Figures in Shadow Overlap Calculations
  ,                                       !- Polygon Clipping Algorithm
  512,                                    !- Pixel Counting Resolution
  ,                                       !- Sky Diffuse Modeling Algorithm
  No,                                     !- Output External Shading Calculation Results
  No,                                     !- Disable Self-Shading Within Shading Zone Groups
  No;                                     !- Disable Self-Shading From Shading Zone Groups to Other Zones

OS:SurfaceConvectionAlgorithm:Outside,
  {a960400a-3ca3-48b3-a00c-ffc3cde4071b}, !- Handle
  DOE-2;                                  !- Algorithm

OS:SurfaceConvectionAlgorithm:Inside,
  {f028ddb8-6144-4d92-83b7-a0113a117701}, !- Handle
  TARP;                                   !- Algorithm

OS:ZoneCapacitanceMultiplier:ResearchSpecial,
  {cdb104ea-ad03-44d8-b0df-12e20b45a198}, !- Handle
  7,                                      !- Temperature Capacity Multiplier
  15,                                     !- Humidity Capacity Multiplier
  ;                                       !- Carbon Dioxide Capacity Multiplier

OS:ConvergenceLimits,
  {1bf5f1c3-f3ee-46bf-9240-294362604e02}, !- Handle
  0;                                      !- Minimum System Timestep {minutes}

OS:RunPeriod,
  {985b29f5-d99e-41b5-ae1a-ed5f41f12ae4}, !- Handle
  Run Period 1,                           !- Name
  1,                                      !- Begin Month
  1,                                      !- Begin Day of Month
  12,                                     !- End Month
  31,                                     !- End Day of Month
  ,                                       !- Use Weather File Holidays and Special Days
  ,                                       !- Use Weather File Daylight Saving Period
  ,                                       !- Apply Weekend Holiday Rule
  ,                                       !- Use Weather File Rain Indicators
  ,                                       !- Use Weather File Snow Indicators
  ;                                       !- Number of Times Runperiod to be Repeated

OS:PerformancePrecisionTradeoffs,
  {a51ea60e-55ce-439e-8760-4c4f08a77416}, !- Handle
  ,                                       !- Use Coil Direct Solutions
  CarrollMRT;                             !- Zone Radiant Exchange Algorithm

OS:WeatherFile,
  {fe316d63-1d65-48d1-a495-2ac0c1f6adc4}, !- Handle
  Buffalo Niagara Intl Ap,                !- City
  NY,                                     !- State Province Region
  USA,                                    !- Country
  TMY3,                                   !- Data Source
  725280,                                 !- WMO Number
  42.93,                                  !- Latitude {deg}
  -78.73,                                 !- Longitude {deg}
  -5,                                     !- Time Zone {hr}
  215,                                    !- Elevation {m}
  /Users/nmoore/github/urbanopt-example-geojson-project/example_project/weather/USA_NY_Buffalo-Greater.Buffalo.Intl.AP.725280_TMY3.epw, !- Url
  6B50E0FF,                               !- Checksum
  ,                                       !- Start Date Actual Year
  Sunday;                                 !- Start Day of Week

OS:YearDescription,
  {7e7c8745-8a2a-4b81-9e50-b45b1df8c5d1}, !- Handle
  2007,                                   !- Calendar Year
  ,                                       !- Day of Week for Start Day
  ;                                       !- Is Leap Year

OS:Site,
  {5df28cac-6bee-4ffe-990b-05a495070077}, !- Handle
  Buffalo Niagara Intl Ap_NY,             !- Name
  42.93,                                  !- Latitude {deg}
  -78.73,                                 !- Longitude {deg}
  -5,                                     !- Time Zone {hr}
  215,                                    !- Elevation {m}
  Suburbs,                                !- Terrain
  Yes;                                    !- Keep Site Location Information

OS:RunPeriodControl:DaylightSavingTime,
  {6336a7ad-4112-4de3-b654-fc46ac69d6d4}, !- Handle
  Mar 12,                                 !- Start Date
  Nov 5;                                  !- End Date

OS:Site:GroundTemperature:Shallow,
  {113b0854-3566-4ce9-9f68-7e7332020aaa}, !- Handle
  4.30207395723828,                       !- January Surface Ground Temperature {C}
  2.29327249652502,                       !- February Surface Ground Temperature {C}
  2.13240047156047,                       !- March Surface Ground Temperature {C}
  3.08567940719286,                       !- April Surface Ground Temperature {C}
  6.91256312497526,                       !- May Surface Ground Temperature {C}
  10.7216195949507,                       !- June Surface Ground Temperature {C}
  14.0238679822574,                       !- July Surface Ground Temperature {C}
  16.1157611184724,                       !- August Surface Ground Temperature {C}
  16.2934789303462,                       !- September Surface Ground Temperature {C}
  14.5920754632847,                       !- October Surface Ground Temperature {C}
  11.374036348653,                        !- November Surface Ground Temperature {C}
  7.68182621661674;                       !- December Surface Ground Temperature {C}

OS:ThermalZone,
  {a46b2e65-c0a6-45c4-9560-fd68f5f85c27}, !- Handle
  conditioned space,                      !- Name
  1,                                      !- Multiplier
  ,                                       !- Ceiling Height {m}
  692.06373070848,                        !- Volume {m3}
  ,                                       !- Floor Area {m2}
  ,                                       !- Zone Inside Convection Algorithm
  ,                                       !- Zone Outside Convection Algorithm
  ,                                       !- Zone Conditioning Equipment List Name
  {a761d483-a96b-4f04-9783-8a70d48972df}, !- Zone Air Inlet Port List
  {c612980b-f111-417e-aec4-3dcf5e87d7b2}, !- Zone Air Exhaust Port List
  {60d77a91-7b93-4813-bd0d-c5f735d3f4d0}, !- Zone Air Node Name
  {7d2b17ca-ffd4-4857-8187-d0e79e80cb9f}, !- Zone Return Air Port List
  ,                                       !- Primary Daylighting Control Name
  ,                                       !- Fraction of Zone Controlled by Primary Daylighting Control
  ,                                       !- Secondary Daylighting Control Name
  ,                                       !- Fraction of Zone Controlled by Secondary Daylighting Control
  ,                                       !- Illuminance Map Name
  ,                                       !- Group Rendering Name
  {efe64845-e5ee-40af-a572-88bab191bb86}, !- Thermostat Name
  No;                                     !- Use Ideal Air Loads

OS:Node,
  {70e706eb-2d45-4fd2-af72-9be136dc2f13}, !- Handle
  Node 1,                                 !- Name
  {60d77a91-7b93-4813-bd0d-c5f735d3f4d0}, !- Inlet Port
  ;                                       !- Outlet Port

OS:Connection,
  {60d77a91-7b93-4813-bd0d-c5f735d3f4d0}, !- Handle
  {a46b2e65-c0a6-45c4-9560-fd68f5f85c27}, !- Source Object
  11,                                     !- Outlet Port
  {70e706eb-2d45-4fd2-af72-9be136dc2f13}, !- Target Object
  2;                                      !- Inlet Port

OS:PortList,
  {a761d483-a96b-4f04-9783-8a70d48972df}, !- Handle
  {a46b2e65-c0a6-45c4-9560-fd68f5f85c27}, !- HVAC Component
  {9182a340-8354-4961-9c09-b15149f00c00}; !- Port 1

OS:PortList,
  {c612980b-f111-417e-aec4-3dcf5e87d7b2}, !- Handle
  {a46b2e65-c0a6-45c4-9560-fd68f5f85c27}; !- HVAC Component

OS:PortList,
  {7d2b17ca-ffd4-4857-8187-d0e79e80cb9f}, !- Handle
  {a46b2e65-c0a6-45c4-9560-fd68f5f85c27}, !- HVAC Component
  {2eb84699-623f-4c12-8994-a91a2906df10}; !- Port 1

OS:Sizing:Zone,
  {c6e5bdcf-6bd1-4e6b-a058-855e8027cf07}, !- Handle
  {a46b2e65-c0a6-45c4-9560-fd68f5f85c27}, !- Zone or ZoneList Name
  SupplyAirTemperature,                   !- Zone Cooling Design Supply Air Temperature Input Method
  14,                                     !- Zone Cooling Design Supply Air Temperature {C}
  11.11,                                  !- Zone Cooling Design Supply Air Temperature Difference {deltaC}
  SupplyAirTemperature,                   !- Zone Heating Design Supply Air Temperature Input Method
  40,                                     !- Zone Heating Design Supply Air Temperature {C}
  11.11,                                  !- Zone Heating Design Supply Air Temperature Difference {deltaC}
  0.0085,                                 !- Zone Cooling Design Supply Air Humidity Ratio {kg-H2O/kg-air}
  0.008,                                  !- Zone Heating Design Supply Air Humidity Ratio {kg-H2O/kg-air}
  ,                                       !- Zone Heating Sizing Factor
  ,                                       !- Zone Cooling Sizing Factor
  DesignDay,                              !- Cooling Design Air Flow Method
  ,                                       !- Cooling Design Air Flow Rate {m3/s}
  ,                                       !- Cooling Minimum Air Flow per Zone Floor Area {m3/s-m2}
  ,                                       !- Cooling Minimum Air Flow {m3/s}
  ,                                       !- Cooling Minimum Air Flow Fraction
  DesignDay,                              !- Heating Design Air Flow Method
  ,                                       !- Heating Design Air Flow Rate {m3/s}
  ,                                       !- Heating Maximum Air Flow per Zone Floor Area {m3/s-m2}
  ,                                       !- Heating Maximum Air Flow {m3/s}
  ,                                       !- Heating Maximum Air Flow Fraction
  No,                                     !- Account for Dedicated Outdoor Air System
  NeutralSupplyAir,                       !- Dedicated Outdoor Air System Control Strategy
  autosize,                               !- Dedicated Outdoor Air Low Setpoint Temperature for Design {C}
  autosize,                               !- Dedicated Outdoor Air High Setpoint Temperature for Design {C}
  Sensible Load Only No Latent Load,      !- Zone Load Sizing Method
  HumidityRatioDifference,                !- Zone Latent Cooling Design Supply Air Humidity Ratio Input Method
  ,                                       !- Zone Dehumidification Design Supply Air Humidity Ratio {kgWater/kgDryAir}
  0.005,                                  !- Zone Cooling Design Supply Air Humidity Ratio Difference {kgWater/kgDryAir}
  HumidityRatioDifference,                !- Zone Latent Heating Design Supply Air Humidity Ratio Input Method
  ,                                       !- Zone Humidification Design Supply Air Humidity Ratio {kgWater/kgDryAir}
  0.005,                                  !- Zone Humidification Design Supply Air Humidity Ratio Difference {kgWater/kgDryAir}
  ,                                       !- Zone Humidistat Dehumidification Set Point Schedule Name
  ,                                       !- Zone Humidistat Humidification Set Point Schedule Name
  ,                                       !- Design Zone Air Distribution Effectiveness in Cooling Mode
  ,                                       !- Design Zone Air Distribution Effectiveness in Heating Mode
  ,                                       !- Design Zone Secondary Recirculation Fraction {dimensionless}
  ,                                       !- Design Minimum Zone Ventilation Efficiency {dimensionless}
  Coincident;                             !- Sizing Option

OS:ZoneHVAC:EquipmentList,
  {adbdf077-0431-4a3e-a481-e4ab90361969}, !- Handle
  Zone HVAC Equipment List 1,             !- Name
  {a46b2e65-c0a6-45c4-9560-fd68f5f85c27}, !- Thermal Zone
  ,                                       !- Load Distribution Scheme
  {a0948639-32c7-422c-bdb8-588d9aa0e6a1}, !- Zone Equipment 1
  1,                                      !- Zone Equipment Cooling Sequence 1
  1,                                      !- Zone Equipment Heating or No-Load Sequence 1
  {3e26159d-75b3-4880-8813-23c6840ffbdd}, !- Zone Equipment Sequential Cooling Fraction Schedule Name 1
  {dd4af1da-acd0-4323-a48c-cd019183c754}, !- Zone Equipment Sequential Heating Fraction Schedule Name 1
  {bb4ee653-9017-4ffe-bb26-86a1aaa1776b}, !- Zone Equipment 2
  2,                                      !- Zone Equipment Cooling Sequence 2
  2,                                      !- Zone Equipment Heating or No-Load Sequence 2
  {89e0a212-1a3e-4316-b02d-54febddbb1dd}, !- Zone Equipment Sequential Cooling Fraction Schedule Name 2
  {4674eb36-39f8-4b54-a92d-4233751cdf88}; !- Zone Equipment Sequential Heating Fraction Schedule Name 2

OS:AdditionalProperties,
  {d713798c-3be9-42cf-a885-b441cfc83e0f}, !- Handle
  {a46b2e65-c0a6-45c4-9560-fd68f5f85c27}, !- Object Name
  ObjectType,                             !- Feature Name 1
  String,                                 !- Feature Data Type 1
  conditioned space;                      !- Feature Value 1

OS:Space,
  {5cbe97d0-ce49-4b23-9a56-43f19734a8b6}, !- Handle
  conditioned space 1,                    !- Name
  ,                                       !- Space Type Name
  ,                                       !- Default Construction Set Name
  ,                                       !- Default Schedule Set Name
  ,                                       !- Direction of Relative North {deg}
  ,                                       !- X Origin {m}
  ,                                       !- Y Origin {m}
  ,                                       !- Z Origin {m}
  ,                                       !- Building Story Name
  {a46b2e65-c0a6-45c4-9560-fd68f5f85c27}, !- Thermal Zone Name
  ,                                       !- Part of Total Floor Area
  ,                                       !- Design Specification Outdoor Air Object Name
  ,                                       !- Building Unit Name
  692.06373070848;                        !- Volume {m3}

OS:Schedule:Ruleset,
  {8aead72f-506e-4c4a-98cd-b26086b61ca8}, !- Handle
  heating setpoint,                       !- Name
  {77c62172-aec0-40bf-a5e1-f1bb90340818}, !- Schedule Type Limits Name
  {f0275a00-8efb-47e3-8576-20f09f8da3af}; !- Default Day Schedule Name

OS:Schedule:Day,
  {f0275a00-8efb-47e3-8576-20f09f8da3af}, !- Handle
  heating setpoint default day,           !- Name
  {77c62172-aec0-40bf-a5e1-f1bb90340818}, !- Schedule Type Limits Name
  ,                                       !- Interpolate to Timestep
  24,                                     !- Hour 1
  0,                                      !- Minute 1
  0;                                      !- Value Until Time 1

OS:Schedule:Rule,
  {908b2a70-d4b8-4ce2-953f-9afb7dd07101}, !- Handle
  heating setpoint allday rule,           !- Name
  {8aead72f-506e-4c4a-98cd-b26086b61ca8}, !- Schedule Ruleset Name
  0,                                      !- Rule Order
  {7f80f32d-1895-4ad5-8f05-085ed60ba89a}, !- Day Schedule Name
  Yes,                                    !- Apply Sunday
  Yes,                                    !- Apply Monday
  Yes,                                    !- Apply Tuesday
  Yes,                                    !- Apply Wednesday
  Yes,                                    !- Apply Thursday
  Yes,                                    !- Apply Friday
  Yes,                                    !- Apply Saturday
  DateRange,                              !- Date Specification Type
  1,                                      !- Start Month
  1,                                      !- Start Day
  12,                                     !- End Month
  31;                                     !- End Day

OS:Schedule:Day,
  {7f80f32d-1895-4ad5-8f05-085ed60ba89a}, !- Handle
  heating setpoint day,                   !- Name
  {77c62172-aec0-40bf-a5e1-f1bb90340818}, !- Schedule Type Limits Name
  ,                                       !- Interpolate to Timestep
  24,                                     !- Hour 1
  0,                                      !- Minute 1
  20;                                     !- Value Until Time 1

OS:Schedule:Ruleset,
  {a3bcf57b-3790-4873-bb78-16bbc462597a}, !- Handle
  cooling setpoint,                       !- Name
  {77c62172-aec0-40bf-a5e1-f1bb90340818}, !- Schedule Type Limits Name
  {c530b348-2d7a-4e7f-832d-b145170a589e}; !- Default Day Schedule Name

OS:Schedule:Day,
  {c530b348-2d7a-4e7f-832d-b145170a589e}, !- Handle
  cooling setpoint default day,           !- Name
  {77c62172-aec0-40bf-a5e1-f1bb90340818}, !- Schedule Type Limits Name
  ,                                       !- Interpolate to Timestep
  24,                                     !- Hour 1
  0,                                      !- Minute 1
  0;                                      !- Value Until Time 1

OS:Schedule:Rule,
  {6bd0edbf-fccc-466d-919d-c2a431486828}, !- Handle
  cooling setpoint allday rule,           !- Name
  {a3bcf57b-3790-4873-bb78-16bbc462597a}, !- Schedule Ruleset Name
  0,                                      !- Rule Order
  {6a74e85a-e1e4-4f4c-916e-cc0ea25fd96e}, !- Day Schedule Name
  Yes,                                    !- Apply Sunday
  Yes,                                    !- Apply Monday
  Yes,                                    !- Apply Tuesday
  Yes,                                    !- Apply Wednesday
  Yes,                                    !- Apply Thursday
  Yes,                                    !- Apply Friday
  Yes,                                    !- Apply Saturday
  DateRange,                              !- Date Specification Type
  1,                                      !- Start Month
  1,                                      !- Start Day
  12,                                     !- End Month
  31;                                     !- End Day

OS:Schedule:Day,
  {6a74e85a-e1e4-4f4c-916e-cc0ea25fd96e}, !- Handle
  cooling setpoint day,                   !- Name
  {77c62172-aec0-40bf-a5e1-f1bb90340818}, !- Schedule Type Limits Name
  ,                                       !- Interpolate to Timestep
  24,                                     !- Hour 1
  0,                                      !- Minute 1
  25.5555555555556;                       !- Value Until Time 1

OS:ThermostatSetpoint:DualSetpoint,
  {efe64845-e5ee-40af-a572-88bab191bb86}, !- Handle
  conditioned space temperature setpoint, !- Name
  {8aead72f-506e-4c4a-98cd-b26086b61ca8}, !- Heating Setpoint Temperature Schedule Name
  {a3bcf57b-3790-4873-bb78-16bbc462597a}, !- Cooling Setpoint Temperature Schedule Name
  0;                                      !- Temperature Difference Between Cutout And Setpoint {deltaC}

OS:ScheduleTypeLimits,
  {77c62172-aec0-40bf-a5e1-f1bb90340818}, !- Handle
  Temperature,                            !- Name
  ,                                       !- Lower Limit Value
  ,                                       !- Upper Limit Value
  Continuous,                             !- Numeric Type
  Temperature;                            !- Unit Type

OS:Surface,
  {cd5c30c9-f83b-430e-a6a9-3bc7cf5f503a}, !- Handle
  Roof1,                                  !- Name
  RoofCeiling,                            !- Surface Type
  {f9e08a5b-9ca8-4ebb-9e8a-fe4f4e694cbb}, !- Construction Name
  {2a56ba6b-43a1-4a5e-9e7e-7c1bf22d0ac3}, !- Space Name
  Outdoors,                               !- Outside Boundary Condition
  ,                                       !- Outside Boundary Condition Object
  SunExposed,                             !- Sun Exposure
  WindExposed,                            !- Wind Exposure
  ,                                       !- View Factor to Ground
  ,                                       !- Number of Vertices
  -26.9347048849634, 58.0557891618865, 2.4384, !- X,Y,Z Vertex 1 {m}
  -26.9347048849634, 46.7895631136661, 8.0715130241102, !- X,Y,Z Vertex 2 {m}
  -14.3386812381136, 46.7895631136661, 8.0715130241102, !- X,Y,Z Vertex 3 {m}
  -14.3386812381136, 58.0557891618865, 2.4384; !- X,Y,Z Vertex 4 {m}

OS:AdditionalProperties,
  {c0a77d9c-4b08-44a6-b94d-a99801e9e673}, !- Handle
  {cd5c30c9-f83b-430e-a6a9-3bc7cf5f503a}, !- Object Name
  Length,                                 !- Feature Name 1
  Double,                                 !- Feature Data Type 1
  41.325536899113608,                     !- Feature Value 1
  Width,                                  !- Feature Name 2
  Double,                                 !- Feature Data Type 2
  41.325536899113601,                     !- Feature Value 2
  Azimuth,                                !- Feature Name 3
  Integer,                                !- Feature Data Type 3
  0,                                      !- Feature Value 3
  Tilt,                                   !- Feature Name 4
  Double,                                 !- Feature Data Type 4
  0.5,                                    !- Feature Value 4
  SurfaceType,                            !- Feature Name 5
  String,                                 !- Feature Data Type 5
  Roof;                                   !- Feature Value 5

OS:ThermalZone,
  {3ff04f23-713d-41fa-8faf-60a8ea5f20c1}, !- Handle
  attic - vented,                         !- Name
  1,                                      !- Multiplier
  ,                                       !- Ceiling Height {m}
  356.390921899745,                       !- Volume {m3}
  ,                                       !- Floor Area {m2}
  ,                                       !- Zone Inside Convection Algorithm
  ,                                       !- Zone Outside Convection Algorithm
  ,                                       !- Zone Conditioning Equipment List Name
  {db79fa31-abe2-4f8f-a2ad-27e7a18ff2f3}, !- Zone Air Inlet Port List
  {ddf273f7-9487-4e16-9560-6f5cdc94b953}, !- Zone Air Exhaust Port List
  {12b93dcb-7cd0-41ad-baba-1c03891fff87}, !- Zone Air Node Name
  {f68e7f7f-ae3a-4b90-8a93-d1cfc3d9552d}, !- Zone Return Air Port List
  ,                                       !- Primary Daylighting Control Name
  ,                                       !- Fraction of Zone Controlled by Primary Daylighting Control
  ,                                       !- Secondary Daylighting Control Name
  ,                                       !- Fraction of Zone Controlled by Secondary Daylighting Control
  ,                                       !- Illuminance Map Name
  ,                                       !- Group Rendering Name
  ,                                       !- Thermostat Name
  No;                                     !- Use Ideal Air Loads

OS:Node,
  {985a9eb0-47de-4603-8d8d-a618078505fe}, !- Handle
  Node 2,                                 !- Name
  {12b93dcb-7cd0-41ad-baba-1c03891fff87}, !- Inlet Port
  ;                                       !- Outlet Port

OS:Connection,
  {12b93dcb-7cd0-41ad-baba-1c03891fff87}, !- Handle
  {3ff04f23-713d-41fa-8faf-60a8ea5f20c1}, !- Source Object
  11,                                     !- Outlet Port
  {985a9eb0-47de-4603-8d8d-a618078505fe}, !- Target Object
  2;                                      !- Inlet Port

OS:PortList,
  {db79fa31-abe2-4f8f-a2ad-27e7a18ff2f3}, !- Handle
  {3ff04f23-713d-41fa-8faf-60a8ea5f20c1}; !- HVAC Component

OS:PortList,
  {ddf273f7-9487-4e16-9560-6f5cdc94b953}, !- Handle
  {3ff04f23-713d-41fa-8faf-60a8ea5f20c1}; !- HVAC Component

OS:PortList,
  {f68e7f7f-ae3a-4b90-8a93-d1cfc3d9552d}, !- Handle
  {3ff04f23-713d-41fa-8faf-60a8ea5f20c1}; !- HVAC Component

OS:Sizing:Zone,
  {e2665f8c-9fa0-41ae-82f9-1e1852ad53b9}, !- Handle
  {3ff04f23-713d-41fa-8faf-60a8ea5f20c1}, !- Zone or ZoneList Name
  SupplyAirTemperature,                   !- Zone Cooling Design Supply Air Temperature Input Method
  14,                                     !- Zone Cooling Design Supply Air Temperature {C}
  11.11,                                  !- Zone Cooling Design Supply Air Temperature Difference {deltaC}
  SupplyAirTemperature,                   !- Zone Heating Design Supply Air Temperature Input Method
  40,                                     !- Zone Heating Design Supply Air Temperature {C}
  11.11,                                  !- Zone Heating Design Supply Air Temperature Difference {deltaC}
  0.0085,                                 !- Zone Cooling Design Supply Air Humidity Ratio {kg-H2O/kg-air}
  0.008,                                  !- Zone Heating Design Supply Air Humidity Ratio {kg-H2O/kg-air}
  ,                                       !- Zone Heating Sizing Factor
  ,                                       !- Zone Cooling Sizing Factor
  DesignDay,                              !- Cooling Design Air Flow Method
  ,                                       !- Cooling Design Air Flow Rate {m3/s}
  ,                                       !- Cooling Minimum Air Flow per Zone Floor Area {m3/s-m2}
  ,                                       !- Cooling Minimum Air Flow {m3/s}
  ,                                       !- Cooling Minimum Air Flow Fraction
  DesignDay,                              !- Heating Design Air Flow Method
  ,                                       !- Heating Design Air Flow Rate {m3/s}
  ,                                       !- Heating Maximum Air Flow per Zone Floor Area {m3/s-m2}
  ,                                       !- Heating Maximum Air Flow {m3/s}
  ,                                       !- Heating Maximum Air Flow Fraction
  No,                                     !- Account for Dedicated Outdoor Air System
  NeutralSupplyAir,                       !- Dedicated Outdoor Air System Control Strategy
  autosize,                               !- Dedicated Outdoor Air Low Setpoint Temperature for Design {C}
  autosize,                               !- Dedicated Outdoor Air High Setpoint Temperature for Design {C}
  Sensible Load Only No Latent Load,      !- Zone Load Sizing Method
  HumidityRatioDifference,                !- Zone Latent Cooling Design Supply Air Humidity Ratio Input Method
  ,                                       !- Zone Dehumidification Design Supply Air Humidity Ratio {kgWater/kgDryAir}
  0.005,                                  !- Zone Cooling Design Supply Air Humidity Ratio Difference {kgWater/kgDryAir}
  HumidityRatioDifference,                !- Zone Latent Heating Design Supply Air Humidity Ratio Input Method
  ,                                       !- Zone Humidification Design Supply Air Humidity Ratio {kgWater/kgDryAir}
  0.005,                                  !- Zone Humidification Design Supply Air Humidity Ratio Difference {kgWater/kgDryAir}
  ,                                       !- Zone Humidistat Dehumidification Set Point Schedule Name
  ,                                       !- Zone Humidistat Humidification Set Point Schedule Name
  ,                                       !- Design Zone Air Distribution Effectiveness in Cooling Mode
  ,                                       !- Design Zone Air Distribution Effectiveness in Heating Mode
  ,                                       !- Design Zone Secondary Recirculation Fraction {dimensionless}
  ,                                       !- Design Minimum Zone Ventilation Efficiency {dimensionless}
  Coincident;                             !- Sizing Option

OS:ZoneHVAC:EquipmentList,
  {2b70f1c8-e37b-4509-b93c-38574100da45}, !- Handle
  Zone HVAC Equipment List 2,             !- Name
  {3ff04f23-713d-41fa-8faf-60a8ea5f20c1}; !- Thermal Zone

OS:AdditionalProperties,
  {cb84c348-36f5-44fa-86ff-6e14a293bc45}, !- Handle
  {3ff04f23-713d-41fa-8faf-60a8ea5f20c1}, !- Object Name
  ObjectType,                             !- Feature Name 1
  String,                                 !- Feature Data Type 1
  attic - vented;                         !- Feature Value 1

OS:Space,
  {2a56ba6b-43a1-4a5e-9e7e-7c1bf22d0ac3}, !- Handle
  attic - vented 1,                       !- Name
  ,                                       !- Space Type Name
  ,                                       !- Default Construction Set Name
  ,                                       !- Default Schedule Set Name
  ,                                       !- Direction of Relative North {deg}
  ,                                       !- X Origin {m}
  ,                                       !- Y Origin {m}
  ,                                       !- Z Origin {m}
  ,                                       !- Building Story Name
  {3ff04f23-713d-41fa-8faf-60a8ea5f20c1}, !- Thermal Zone Name
  ,                                       !- Part of Total Floor Area
  ,                                       !- Design Specification Outdoor Air Object Name
  ,                                       !- Building Unit Name
  356.390921899745;                       !- Volume {m3}

OS:Material,
  {2b7ea3e3-8dd1-4115-9d6e-e6f1102e953e}, !- Handle
  asphalt or fiberglass shingles,         !- Name