
OS:Version,
  {19f8cd23-c685-4c5b-9d1f-99f73c32d1e6}, !- Handle
  3.9.0;                                  !- Version Identifier

OS:SimulationControl,
  {02de4646-add8-42a0-bd4a-44796be4480f}, !- Handle
  ,                                       !- Do Zone Sizing Calculation
  ,                                       !- Do System Sizing Calculation
  ,                                       !- Do Plant Sizing Calculation
  No;                                     !- Run Simulation for Sizing Periods

OS:Timestep,
  {33613565-586c-4c11-b175-bc68d1d9998f}, !- Handle
  1;                                      !- Number of Timesteps per Hour

OS:ShadowCalculation,
  {3c65f7e6-5ab3-4bd2-873d-6bdc5e79d300}, !- Handle
  PolygonClipping,                        !- Shading Calculation Method
  ,                                       !- Shading Calculation Update Frequency Method
  20,                                     !- Shading Calculation Update Frequency
  200,                                    !- Maximum Figures in Shadow Overlap Calculations
  ,                                       !- Polygon Clipping Algorithm
  512,                                    !- Pixel Counting Resolution
  ,                                       !- Sky Diffuse Modeling Algorithm
  No,                                     !- Output External Shading Calculation Results
  No,                                     !- Disable Self-Shading Within Shading Zone Groups
  No;                                     !- Disable Self-Shading From Shading Zone Groups to Other Zones

OS:SurfaceConvectionAlgorithm:Outside,
  {3f3566fe-431b-44ea-a198-6374369b3d71}, !- Handle
  DOE-2;                                  !- Algorithm

OS:SurfaceConvectionAlgorithm:Inside,
  {e0e1e2ba-3e25-46d1-bd3c-bee1b2bbb6c3}, !- Handle
  TARP;                                   !- Algorithm

OS:ZoneCapacitanceMultiplier:ResearchSpecial,
  {ec9cd126-9e01-43f7-8d50-eb332a54c5a7}, !- Handle
  7,                                      !- Temperature Capacity Multiplier
  15,                                     !- Humidity Capacity Multiplier
  ;                                       !- Carbon Dioxide Capacity Multiplier

OS:ConvergenceLimits,
  {25a3d0fa-1aed-4762-a012-8572ca97e3a2}, !- Handle
  0;                                      !- Minimum System Timestep {minutes}

OS:RunPeriod,
  {7eb68ab4-eadf-4e14-a5b8-9f37e94f0220}, !- Handle
  Run Period 1,                           !- Name
  1,                                      !- Begin Month
  1,                                      !- Begin Day of Month
  12,                                     !- End Month
  31,                                     !- End Day of Month
  ,                                       !- Use Weather File Holidays and Special Days
  ,                                       !- Use Weather File Daylight Saving Period
  ,                                       !- Apply Weekend Holiday Rule
  ,                                       !- Use Weather File Rain Indicators
  ,                                       !- Use Weather File Snow Indicators
  ;                                       !- Number of Times Runperiod to be Repeated

OS:PerformancePrecisionTradeoffs,
  {64b89984-916d-4e0a-b123-c852b79c9cdc}, !- Handle
  ,                                       !- Use Coil Direct Solutions
  CarrollMRT;                             !- Zone Radiant Exchange Algorithm

OS:WeatherFile,
  {2b3b4050-4ca8-46e5-a227-86d484ff9c80}, !- Handle
  Buffalo Niagara Intl Ap,                !- City
  NY,                                     !- State Province Region
  USA,                                    !- Country
  TMY3,                                   !- Data Source
  725280,                                 !- WMO Number
  42.93,                                  !- Latitude {deg}
  -78.73,                                 !- Longitude {deg}
  -5,                                     !- Time Zone {hr}
  215,                                    !- Elevation {m}
  /Users/nmoore/github/urbanopt-example-geojson-project/example_project/weather/USA_NY_Buffalo-Greater.Buffalo.Intl.AP.725280_TMY3.epw, !- Url
  6B50E0FF,                               !- Checksum
  ,                                       !- Start Date Actual Year
  Sunday;                                 !- Start Day of Week

OS:YearDescription,
  {b23c867c-11a5-4912-8007-881bb46a2f19}, !- Handle
  2007,                                   !- Calendar Year
  ,                                       !- Day of Week for Start Day
  ;                                       !- Is Leap Year

OS:Site,
  {9a04c634-d379-42e0-b2e6-6c686d0ded72}, !- Handle
  Buffalo Niagara Intl Ap_NY,             !- Name
  42.93,                                  !- Latitude {deg}
  -78.73,                                 !- Longitude {deg}
  -5,                                     !- Time Zone {hr}
  215,                                    !- Elevation {m}
  Suburbs,                                !- Terrain
  Yes;                                    !- Keep Site Location Information

OS:RunPeriodControl:DaylightSavingTime,
  {d4ab977a-7bc2-43e9-a874-39db49ad1404}, !- Handle
  Mar 12,                                 !- Start Date
  Nov 5;                                  !- End Date

OS:Site:GroundTemperature:Shallow,
  {c4ba2abb-defc-45dd-b2b4-86429cacd9fa}, !- Handle
  4.30207395723828,                       !- January Surface Ground Temperature {C}
  2.29327249652502,                       !- February Surface Ground Temperature {C}
  2.13240047156047,                       !- March Surface Ground Temperature {C}
  3.08567940719286,                       !- April Surface Ground Temperature {C}
  6.91256312497526,                       !- May Surface Ground Temperature {C}
  10.7216195949507,                       !- June Surface Ground Temperature {C}
  14.0238679822574,                       !- July Surface Ground Temperature {C}
  16.1157611184724,                       !- August Surface Ground Temperature {C}
  16.2934789303462,                       !- September Surface Ground Temperature {C}
  14.5920754632847,                       !- October Surface Ground Temperature {C}
  11.374036348653,                        !- November Surface Ground Temperature {C}
  7.68182621661674;                       !- December Surface Ground Temperature {C}

OS:ThermalZone,
  {8f85dfa3-b0c4-411b-b3e3-d6842c5446b3}, !- Handle
  conditioned space,                      !- Name
  1,                                      !- Multiplier
  ,                                       !- Ceiling Height {m}
  692.06373070848,                        !- Volume {m3}
  ,                                       !- Floor Area {m2}
  ,                                       !- Zone Inside Convection Algorithm
  ,                                       !- Zone Outside Convection Algorithm
  ,                                       !- Zone Conditioning Equipment List Name
  {d5720b96-c462-4f77-a755-3d22f8f84b3f}, !- Zone Air Inlet Port List
  {b41ddc78-446f-4c7e-bbe7-1efe64102346}, !- Zone Air Exhaust Port List
  {3906d4d2-6559-4cd4-9960-71b334d255be}, !- Zone Air Node Name
  {680e613d-7f50-44f5-849e-52d7f4f3dda9}, !- Zone Return Air Port List
  ,                                       !- Primary Daylighting Control Name
  ,                                       !- Fraction of Zone Controlled by Primary Daylighting Control
  ,                                       !- Secondary Daylighting Control Name
  ,                                       !- Fraction of Zone Controlled by Secondary Daylighting Control
  ,                                       !- Illuminance Map Name
  ,                                       !- Group Rendering Name
  {f274f8c2-9f74-4ad2-8f88-44fe937c5ae0}, !- Thermostat Name
  No;                                     !- Use Ideal Air Loads

OS:Node,
  {bd211348-7291-4c5b-9fef-c0341d78bcde}, !- Handle
  Node 1,                                 !- Name
  {3906d4d2-6559-4cd4-9960-71b334d255be}, !- Inlet Port
  ;                                       !- Outlet Port

OS:Connection,
  {3906d4d2-6559-4cd4-9960-71b334d255be}, !- Handle
  {8f85dfa3-b0c4-411b-b3e3-d6842c5446b3}, !- Source Object
  11,                                     !- Outlet Port
  {bd211348-7291-4c5b-9fef-c0341d78bcde}, !- Target Object
  2;                                      !- Inlet Port

OS:PortList,
  {d5720b96-c462-4f77-a755-3d22f8f84b3f}, !- Handle
  {8f85dfa3-b0c4-411b-b3e3-d6842c5446b3}, !- HVAC Component
  {d80d575e-0dfa-4489-91d5-e6e14e0295e1}; !- Port 1

OS:PortList,
  {b41ddc78-446f-4c7e-bbe7-1efe64102346}, !- Handle
  {8f85dfa3-b0c4-411b-b3e3-d6842c5446b3}; !- HVAC Component

OS:PortList,
  {680e613d-7f50-44f5-849e-52d7f4f3dda9}, !- Handle
  {8f85dfa3-b0c4-411b-b3e3-d6842c5446b3}, !- HVAC Component
  {9b9f7f6e-128a-4df8-a14c-49adf52807cf}; !- Port 1

OS:Sizing:Zone,
  {b6a802b4-545a-48d0-b56e-6d69d756abff}, !- Handle
  {8f85dfa3-b0c4-411b-b3e3-d6842c5446b3}, !- Zone or ZoneList Name
  SupplyAirTemperature,                   !- Zone Cooling Design Supply Air Temperature Input Method
  14,                                     !- Zone Cooling Design Supply Air Temperature {C}
  11.11,                                  !- Zone Cooling Design Supply Air Temperature Difference {deltaC}
  SupplyAirTemperature,                   !- Zone Heating Design Supply Air Temperature Input Method
  40,                                     !- Zone Heating Design Supply Air Temperature {C}
  11.11,                                  !- Zone Heating Design Supply Air Temperature Difference {deltaC}
  0.0085,                                 !- Zone Cooling Design Supply Air Humidity Ratio {kg-H2O/kg-air}
  0.008,                                  !- Zone Heating Design Supply Air Humidity Ratio {kg-H2O/kg-air}
  ,                                       !- Zone Heating Sizing Factor
  ,                                       !- Zone Cooling Sizing Factor
  DesignDay,                              !- Cooling Design Air Flow Method
  ,                                       !- Cooling Design Air Flow Rate {m3/s}
  ,                                       !- Cooling Minimum Air Flow per Zone Floor Area {m3/s-m2}
  ,                                       !- Cooling Minimum Air Flow {m3/s}
  ,                                       !- Cooling Minimum Air Flow Fraction
  DesignDay,                              !- Heating Design Air Flow Method
  ,                                       !- Heating Design Air Flow Rate {m3/s}
  ,                                       !- Heating Maximum Air Flow per Zone Floor Area {m3/s-m2}
  ,                                       !- Heating Maximum Air Flow {m3/s}
  ,                                       !- Heating Maximum Air Flow Fraction
  No,                                     !- Account for Dedicated Outdoor Air System
  NeutralSupplyAir,                       !- Dedicated Outdoor Air System Control Strategy
  autosize,                               !- Dedicated Outdoor Air Low Setpoint Temperature for Design {C}
  autosize,                               !- Dedicated Outdoor Air High Setpoint Temperature for Design {C}
  Sensible Load Only No Latent Load,      !- Zone Load Sizing Method
  HumidityRatioDifference,                !- Zone Latent Cooling Design Supply Air Humidity Ratio Input Method
  ,                                       !- Zone Dehumidification Design Supply Air Humidity Ratio {kgWater/kgDryAir}
  0.005,                                  !- Zone Cooling Design Supply Air Humidity Ratio Difference {kgWater/kgDryAir}
  HumidityRatioDifference,                !- Zone Latent Heating Design Supply Air Humidity Ratio Input Method
  ,                                       !- Zone Humidification Design Supply Air Humidity Ratio {kgWater/kgDryAir}
  0.005,                                  !- Zone Humidification Design Supply Air Humidity Ratio Difference {kgWater/kgDryAir}
  ,                                       !- Zone Humidistat Dehumidification Set Point Schedule Name
  ,                                       !- Zone Humidistat Humidification Set Point Schedule Name
  ,                                       !- Design Zone Air Distribution Effectiveness in Cooling Mode
  ,                                       !- Design Zone Air Distribution Effectiveness in Heating Mode
  ,                                       !- Design Zone Secondary Recirculation Fraction {dimensionless}
  ,                                       !- Design Minimum Zone Ventilation Efficiency {dimensionless}
  Coincident;                             !- Sizing Option

OS:ZoneHVAC:EquipmentList,
  {2ce575ba-446f-4cf7-88ab-a03b7582aa5b}, !- Handle
  Zone HVAC Equipment List 1,             !- Name
  {8f85dfa3-b0c4-411b-b3e3-d6842c5446b3}, !- Thermal Zone
  ,                                       !- Load Distribution Scheme
  {bebc8158-8949-4d0f-b8a5-df6d81260720}, !- Zone Equipment 1
  1,                                      !- Zone Equipment Cooling Sequence 1
  1,                                      !- Zone Equipment Heating or No-Load Sequence 1
  {4e174bb5-1549-4a70-b9a3-59abd49799b1}, !- Zone Equipment Sequential Cooling Fraction Schedule Name 1
  {0f302e67-ef85-41a0-bf41-83831821f471}, !- Zone Equipment Sequential Heating Fraction Schedule Name 1
  {3885ec23-4611-48de-82e3-4ee4e356dfe4}, !- Zone Equipment 2
  2,                                      !- Zone Equipment Cooling Sequence 2
  2,                                      !- Zone Equipment Heating or No-Load Sequence 2
  {c93ab19e-91ab-4a51-b9f2-2a5685a2d26a}, !- Zone Equipment Sequential Cooling Fraction Schedule Name 2
  {0efbc898-db11-40a6-b643-a13ddb013709}; !- Zone Equipment Sequential Heating Fraction Schedule Name 2

OS:AdditionalProperties,
  {95048350-0530-4162-9c34-db23262bdd9d}, !- Handle
  {8f85dfa3-b0c4-411b-b3e3-d6842c5446b3}, !- Object Name
  ObjectType,                             !- Feature Name 1
  String,                                 !- Feature Data Type 1
  conditioned space;                      !- Feature Value 1

OS:Space,
  {3281fb33-d69f-4f8b-8cd1-16cd1e560da4}, !- Handle
  conditioned space 1,                    !- Name
  ,                                       !- Space Type Name
  ,                                       !- Default Construction Set Name
  ,                                       !- Default Schedule Set Name
  ,                                       !- Direction of Relative North {deg}
  ,                                       !- X Origin {m}
  ,                                       !- Y Origin {m}
  ,                                       !- Z Origin {m}
  ,                                       !- Building Story Name
  {8f85dfa3-b0c4-411b-b3e3-d6842c5446b3}, !- Thermal Zone Name
  ,                                       !- Part of Total Floor Area
  ,                                       !- Design Specification Outdoor Air Object Name
  ,                                       !- Building Unit Name
  692.06373070848;                        !- Volume {m3}

OS:Schedule:Ruleset,
  {d0134dca-3e25-4873-839c-3f45625715fa}, !- Handle
  heating setpoint,                       !- Name
  {c49b7aef-0c06-4096-a762-10751a933cc7}, !- Schedule Type Limits Name
  {ed83e2c9-f7b6-4c98-a292-6e5810612a29}; !- Default Day Schedule Name

OS:Schedule:Day,
  {ed83e2c9-f7b6-4c98-a292-6e5810612a29}, !- Handle
  heating setpoint default day,           !- Name
  {c49b7aef-0c06-4096-a762-10751a933cc7}, !- Schedule Type Limits Name
  ,                                       !- Interpolate to Timestep
  24,                                     !- Hour 1
  0,                                      !- Minute 1
  0;                                      !- Value Until Time 1

OS:Schedule:Rule,
  {06f71b67-8b3f-4f2c-be07-d0e0fcfd8bac}, !- Handle
  heating setpoint allday rule,           !- Name
  {d0134dca-3e25-4873-839c-3f45625715fa}, !- Schedule Ruleset Name
  0,                                      !- Rule Order
  {afe8b367-20d2-40fd-bd35-d85b19c32d06}, !- Day Schedule Name
  Yes,                                    !- Apply Sunday
  Yes,                                    !- Apply Monday
  Yes,                                    !- Apply Tuesday
  Yes,                                    !- Apply Wednesday
  Yes,                                    !- Apply Thursday
  Yes,                                    !- Apply Friday
  Yes,                                    !- Apply Saturday
  DateRange,                              !- Date Specification Type
  1,                                      !- Start Month
  1,                                      !- Start Day
  12,                                     !- End Month
  31;                                     !- End Day

OS:Schedule:Day,
  {afe8b367-20d2-40fd-bd35-d85b19c32d06}, !- Handle
  heating setpoint day,                   !- Name
  {c49b7aef-0c06-4096-a762-10751a933cc7}, !- Schedule Type Limits Name
  ,                                       !- Interpolate to Timestep
  24,                                     !- Hour 1
  0,                                      !- Minute 1
  20;                                     !- Value Until Time 1

OS:Schedule:Ruleset,
  {565ebbd5-082b-42e5-8d5b-4807610f38ef}, !- Handle
  cooling setpoint,                       !- Name
  {c49b7aef-0c06-4096-a762-10751a933cc7}, !- Schedule Type Limits Name
  {f1bb225a-5ee9-425c-8cd8-cd3c408ecdb3}; !- Default Day Schedule Name

OS:Schedule:Day,
  {f1bb225a-5ee9-425c-8cd8-cd3c408ecdb3}, !- Handle
  cooling setpoint default day,           !- Name
  {c49b7aef-0c06-4096-a762-10751a933cc7}, !- Schedule Type Limits Name
  ,                                       !- Interpolate to Timestep
  24,                                     !- Hour 1
  0,                                      !- Minute 1
  0;                                      !- Value Until Time 1

OS:Schedule:Rule,
  {840e7025-b9b3-46f5-81fd-09b9084ea6b5}, !- Handle
  cooling setpoint allday rule,           !- Name
  {565ebbd5-082b-42e5-8d5b-4807610f38ef}, !- Schedule Ruleset Name
  0,                                      !- Rule Order
  {984b7d21-80bf-4892-9414-dd1afcba651f}, !- Day Schedule Name
  Yes,                                    !- Apply Sunday
  Yes,                                    !- Apply Monday
  Yes,                                    !- Apply Tuesday
  Yes,                                    !- Apply Wednesday
  Yes,                                    !- Apply Thursday
  Yes,                                    !- Apply Friday
  Yes,                                    !- Apply Saturday
  DateRange,                              !- Date Specification Type
  1,                                      !- Start Month
  1,                                      !- Start Day
  12,                                     !- End Month
  31;                                     !- End Day

OS:Schedule:Day,
  {984b7d21-80bf-4892-9414-dd1afcba651f}, !- Handle
  cooling setpoint day,                   !- Name
  {c49b7aef-0c06-4096-a762-10751a933cc7}, !- Schedule Type Limits Name
  ,                                       !- Interpolate to Timestep
  24,                                     !- Hour 1
  0,                                      !- Minute 1
  25.5555555555556;                       !- Value Until Time 1

OS:ThermostatSetpoint:DualSetpoint,
  {f274f8c2-9f74-4ad2-8f88-44fe937c5ae0}, !- Handle
  conditioned space temperature setpoint, !- Name
  {d0134dca-3e25-4873-839c-3f45625715fa}, !- Heating Setpoint Temperature Schedule Name
  {565ebbd5-082b-42e5-8d5b-4807610f38ef}, !- Cooling Setpoint Temperature Schedule Name
  0;                                      !- Temperature Difference Between Cutout And Setpoint {deltaC}

OS:ScheduleTypeLimits,
  {c49b7aef-0c06-4096-a762-10751a933cc7}, !- Handle
  Temperature,                            !- Name
  ,                                       !- Lower Limit Value
  ,                                       !- Upper Limit Value
  Continuous,                             !- Numeric Type
  Temperature;                            !- Unit Type

OS:Surface,
  {6bf076e7-7fe9-48a7-aea8-9177b7d72788}, !- Handle
  Roof1,                                  !- Name
  RoofCeiling,                            !- Surface Type
  {e8c9254b-df63-43da-96ce-1643f560864e}, !- Construction Name
  {08b56928-7e04-420d-9c3b-5e7f5b04feb3}, !- Space Name
  Outdoors,                               !- Outside Boundary Condition
  ,                                       !- Outside Boundary Condition Object
  SunExposed,                             !- Sun Exposure
  WindExposed,                            !- Wind Exposure
  ,                                       !- View Factor to Ground
  ,                                       !- Number of Vertices
  -26.9347048849634, 58.0557891618865, 2.4384, !- X,Y,Z Vertex 1 {m}
  -26.9347048849634, 46.7895631136661, 8.0715130241102, !- X,Y,Z Vertex 2 {m}
  -14.3386812381136, 46.7895631136661, 8.0715130241102, !- X,Y,Z Vertex 3 {m}
  -14.3386812381136, 58.0557891618865, 2.4384; !- X,Y,Z Vertex 4 {m}

OS:AdditionalProperties,
  {b777dbad-e4ae-4ff4-b5f5-5cb4b5c64a08}, !- Handle
  {6bf076e7-7fe9-48a7-aea8-9177b7d72788}, !- Object Name
  Length,                                 !- Feature Name 1
  Double,                                 !- Feature Data Type 1
  41.325536899113608,                     !- Feature Value 1
  Width,                                  !- Feature Name 2
  Double,                                 !- Feature Data Type 2
  41.325536899113601,                     !- Feature Value 2
  Azimuth,                                !- Feature Name 3
  Integer,                                !- Feature Data Type 3
  0,                                      !- Feature Value 3
  Tilt,                                   !- Feature Name 4
  Double,                                 !- Feature Data Type 4
  0.5,                                    !- Feature Value 4
  SurfaceType,                            !- Feature Name 5
  String,                                 !- Feature Data Type 5
  Roof;                                   !- Feature Value 5

OS:ThermalZone,
  {a3d19cf1-108f-44c1-b05c-09b46b70870b}, !- Handle
  attic - vented,                         !- Name
  1,                                      !- Multiplier
  ,                                       !- Ceiling Height {m}
  356.389957095237,                       !- Volume {m3}
  ,                                       !- Floor Area {m2}
  ,                                       !- Zone Inside Convection Algorithm
  ,                                       !- Zone Outside Convection Algorithm
  ,                                       !- Zone Conditioning Equipment List Name
  {e5ffcf9f-91e2-4b01-8b1d-dc8476577deb}, !- Zone Air Inlet Port List
  {9c0c28c9-c26f-4e34-8855-5d5e507a587e}, !- Zone Air Exhaust Port List
  {5b62d60f-99db-4e72-810c-1a9774a4ce6e}, !- Zone Air Node Name
  {7f9c4065-4e06-47a0-a9a5-f0ba76be75e4}, !- Zone Return Air Port List
  ,                                       !- Primary Daylighting Control Name
  ,                                       !- Fraction of Zone Controlled by Primary Daylighting Control
  ,                                       !- Secondary Daylighting Control Name
  ,                                       !- Fraction of Zone Controlled by Secondary Daylighting Control
  ,                                       !- Illuminance Map Name
  ,                                       !- Group Rendering Name
  ,                                       !- Thermostat Name
  No;                                     !- Use Ideal Air Loads

OS:Node,
  {4c3e16d0-0eb0-4076-8172-05cca23a7f78}, !- Handle
  Node 2,                                 !- Name
  {5b62d60f-99db-4e72-810c-1a9774a4ce6e}, !- Inlet Port
  ;                                       !- Outlet Port

OS:Connection,
  {5b62d60f-99db-4e72-810c-1a9774a4ce6e}, !- Handle
  {a3d19cf1-108f-44c1-b05c-09b46b70870b}, !- Source Object
  11,                                     !- Outlet Port
  {4c3e16d0-0eb0-4076-8172-05cca23a7f78}, !- Target Object
  2;                                      !- Inlet Port

OS:PortList,
  {e5ffcf9f-91e2-4b01-8b1d-dc8476577deb}, !- Handle
  {a3d19cf1-108f-44c1-b05c-09b46b70870b}; !- HVAC Component

OS:PortList,
  {9c0c28c9-c26f-4e34-8855-5d5e507a587e}, !- Handle
  {a3d19cf1-108f-44c1-b05c-09b46b70870b}; !- HVAC Component

OS:PortList,
  {7f9c4065-4e06-47a0-a9a5-f0ba76be75e4}, !- Handle
  {a3d19cf1-108f-44c1-b05c-09b46b70870b}; !- HVAC Component

OS:Sizing:Zone,
  {e2b832f5-8cf9-4a16-919d-bbc3ef745cb2}, !- Handle
  {a3d19cf1-108f-44c1-b05c-09b46b70870b}, !- Zone or ZoneList Name
  SupplyAirTemperature,                   !- Zone Cooling Design Supply Air Temperature Input Method
  14,                                     !- Zone Cooling Design Supply Air Temperature {C}
  11.11,                                  !- Zone Cooling Design Supply Air Temperature Difference {deltaC}
  SupplyAirTemperature,                   !- Zone Heating Design Supply Air Temperature Input Method
  40,                                     !- Zone Heating Design Supply Air Temperature {C}
  11.11,                                  !- Zone Heating Design Supply Air Temperature Difference {deltaC}
  0.0085,                                 !- Zone Cooling Design Supply Air Humidity Ratio {kg-H2O/kg-air}
  0.008,                                  !- Zone Heating Design Supply Air Humidity Ratio {kg-H2O/kg-air}
  ,                                       !- Zone Heating Sizing Factor
  ,                                       !- Zone Cooling Sizing Factor
  DesignDay,                              !- Cooling Design Air Flow Method
  ,                                       !- Cooling Design Air Flow Rate {m3/s}
  ,                                       !- Cooling Minimum Air Flow per Zone Floor Area {m3/s-m2}
  ,                                       !- Cooling Minimum Air Flow {m3/s}
  ,                                       !- Cooling Minimum Air Flow Fraction
  DesignDay,                              !- Heating Design Air Flow Method
  ,                                       !- Heating Design Air Flow Rate {m3/s}
  ,                                       !- Heating Maximum Air Flow per Zone Floor Area {m3/s-m2}
  ,                                       !- Heating Maximum Air Flow {m3/s}
  ,                                       !- Heating Maximum Air Flow Fraction
  No,                                     !- Account for Dedicated Outdoor Air System
  NeutralSupplyAir,                       !- Dedicated Outdoor Air System Control Strategy
  autosize,                               !- Dedicated Outdoor Air Low Setpoint Temperature for Design {C}
  autosize,                               !- Dedicated Outdoor Air High Setpoint Temperature for Design {C}
  Sensible Load Only No Latent Load,      !- Zone Load Sizing Method
  HumidityRatioDifference,                !- Zone Latent Cooling Design Supply Air Humidity Ratio Input Method
  ,                                       !- Zone Dehumidification Design Supply Air Humidity Ratio {kgWater/kgDryAir}
  0.005,                                  !- Zone Cooling Design Supply Air Humidity Ratio Difference {kgWater/kgDryAir}
  HumidityRatioDifference,                !- Zone Latent Heating Design Supply Air Humidity Ratio Input Method
  ,                                       !- Zone Humidification Design Supply Air Humidity Ratio {kgWater/kgDryAir}
  0.005,                                  !- Zone Humidification Design Supply Air Humidity Ratio Difference {kgWater/kgDryAir}
  ,                                       !- Zone Humidistat Dehumidification Set Point Schedule Name
  ,                                       !- Zone Humidistat Humidification Set Point Schedule Name
  ,                                       !- Design Zone Air Distribution Effectiveness in Cooling Mode
  ,                                       !- Design Zone Air Distribution Effectiveness in Heating Mode
  ,                                       !- Design Zone Secondary Recirculation Fraction {dimensionless}
  ,                                       !- Design Minimum Zone Ventilation Efficiency {dimensionless}
  Coincident;                             !- Sizing Option

OS:ZoneHVAC:EquipmentList,
  {ec0eb9b4-439e-4d36-92da-22808b6d5947}, !- Handle
  Zone HVAC Equipment List 2,             !- Name
  {a3d19cf1-108f-44c1-b05c-09b46b70870b}; !- Thermal Zone

OS:AdditionalProperties,
  {a50c6d96-a3e8-420b-bf38-7d1f09a8b037}, !- Handle
  {a3d19cf1-108f-44c1-b05c-09b46b70870b}, !- Object Name
  ObjectType,                             !- Feature Name 1
  String,                                 !- Feature Data Type 1
  attic - vented;                         !- Feature Value 1

OS:Space,
  {08b56928-7e04-420d-9c3b-5e7f5b04feb3}, !- Handle
  attic - vented 1,                       !- Name
  ,                                       !- Space Type Name
  ,                                       !- Default Construction Set Name
  ,                                       !- Default Schedule Set Name
  ,                                       !- Direction of Relative North {deg}
  ,                                       !- X Origin {m}
  ,                                       !- Y Origin {m}
  ,                                       !- Z Origin {m}
  ,                                       !- Building Story Name
  {a3d19cf1-108f-44c1-b05c-09b46b70870b}, !- Thermal Zone Name
  ,                                       !- Part of Total Floor Area
  ,                                       !- Design Specification Outdoor Air Object Name
  ,                                       !- Building Unit Name
  356.389957095237;                       !- Volume {m3}

OS:Material,
  {ee62100b-20a5-4268-90c4-d86f51fb88bb}, !- Handle
  asphalt or fiberglass shingles,         !- Name