
OS:Version,
  {1c928a21-d822-4e94-92f5-102286b2bdfa}, !- Handle
  3.10.0;                                 !- Version Identifier

OS:SimulationControl,
  {94374fd4-effd-4c98-901c-3827f350597e}, !- Handle
  ,                                       !- Do Zone Sizing Calculation
  ,                                       !- Do System Sizing Calculation
  ,                                       !- Do Plant Sizing Calculation
  No;                                     !- Run Simulation for Sizing Periods

OS:Timestep,
  {93aa41a0-e393-421a-8205-d478cdc60a8f}, !- Handle
  1;                                      !- Number of Timesteps per Hour

OS:ShadowCalculation,
  {293b6732-fd15-471b-ad4f-1c7bbbd2db95}, !- Handle
  PolygonClipping,                        !- Shading Calculation Method
  ,                                       !- Shading Calculation Update Frequency Method
  20,                                     !- Shading Calculation Update Frequency
  200,                                    !- Maximum Figures in Shadow Overlap Calculations
  ,                                       !- Polygon Clipping Algorithm
  512,                                    !- Pixel Counting Resolution
  ,                                       !- Sky Diffuse Modeling Algorithm
  No,                                     !- Output External Shading Calculation Results
  No,                                     !- Disable Self-Shading Within Shading Zone Groups
  No;                                     !- Disable Self-Shading From Shading Zone Groups to Other Zones

OS:SurfaceConvectionAlgorithm:Outside,
  {33c41a7b-01b3-4df9-abb4-a2a43ee4558f}, !- Handle
  DOE-2;                                  !- Algorithm

OS:SurfaceConvectionAlgorithm:Inside,
  {b08a719f-17f0-4ac0-a33d-8a3b8bc1a8a5}, !- Handle
  TARP;                                   !- Algorithm

OS:ZoneCapacitanceMultiplier:ResearchSpecial,
  {a33f0ab7-83ef-46b2-8ad3-d2e01e02a23b}, !- Handle
  7,                                      !- Temperature Capacity Multiplier
  15,                                     !- Humidity Capacity Multiplier
  ;                                       !- Carbon Dioxide Capacity Multiplier

OS:ConvergenceLimits,
  {98dcd01e-a528-46d1-bf55-65fd6caa7a2a}, !- Handle
  0;                                      !- Minimum System Timestep {minutes}

OS:RunPeriod,
  {45f2798a-5712-48ee-9a37-875cbd7e4047}, !- Handle
  Run Period 1,                           !- Name
  1,                                      !- Begin Month
  1,                                      !- Begin Day of Month
  12,                                     !- End Month
  31,                                     !- End Day of Month
  ,                                       !- Use Weather File Holidays and Special Days
  ,                                       !- Use Weather File Daylight Saving Period
  ,                                       !- Apply Weekend Holiday Rule
  ,                                       !- Use Weather File Rain Indicators
  ,                                       !- Use Weather File Snow Indicators
  ;                                       !- Number of Times Runperiod to be Repeated

OS:PerformancePrecisionTradeoffs,
  {24ed0d55-6c2f-4faf-9b9d-4172c25aeab6}, !- Handle
  ,                                       !- Use Coil Direct Solutions
  CarrollMRT;                             !- Zone Radiant Exchange Algorithm

OS:WeatherFile,
  {3c55482d-fc68-432e-a1e0-97621d5c0f31}, !- Handle
  Buffalo Niagara Intl Ap,                !- City
  NY,                                     !- State Province Region
  USA,                                    !- Country
  TMY3,                                   !- Data Source
  725280,                                 !- WMO Number
  42.93,                                  !- Latitude {deg}
  -78.73,                                 !- Longitude {deg}
  -5,                                     !- Time Zone {hr}
  215,                                    !- Elevation {m}
  /Users/nmoore/github/urbanopt-example-geojson-project/example_project/weather/USA_NY_Buffalo-Greater.Buffalo.Intl.AP.725280_TMY3.epw, !- Url
  6B50E0FF,                               !- Checksum
  ,                                       !- Start Date Actual Year
  Sunday;                                 !- Start Day of Week

OS:YearDescription,
  {72e75e90-b651-445f-9f95-19a30a72debc}, !- Handle
  2007,                                   !- Calendar Year
  ,                                       !- Day of Week for Start Day
  ;                                       !- Is Leap Year

OS:Site,
  {ffc38cf9-4226-45b0-9c90-4ecdb5cc3b0d}, !- Handle
  Buffalo Niagara Intl Ap_NY,             !- Name
  42.93,                                  !- Latitude {deg}
  -78.73,                                 !- Longitude {deg}
  -5,                                     !- Time Zone {hr}
  215,                                    !- Elevation {m}
  Suburbs,                                !- Terrain
  Yes;                                    !- Keep Site Location Information

OS:RunPeriodControl:DaylightSavingTime,
  {c3425d6b-9ca0-45f7-9f49-4ab33279108c}, !- Handle
  Mar 12,                                 !- Start Date
  Nov 5;                                  !- End Date

OS:Site:GroundTemperature:Shallow,
  {ef917faf-2c83-4bd4-8a03-ad77c0d8c627}, !- Handle
  4.30207395723828,                       !- January Surface Ground Temperature {C}
  2.29327249652502,                       !- February Surface Ground Temperature {C}
  2.13240047156047,                       !- March Surface Ground Temperature {C}
  3.08567940719286,                       !- April Surface Ground Temperature {C}
  6.91256312497526,                       !- May Surface Ground Temperature {C}
  10.7216195949507,                       !- June Surface Ground Temperature {C}
  14.0238679822574,                       !- July Surface Ground Temperature {C}
  16.1157611184724,                       !- August Surface Ground Temperature {C}
  16.2934789303462,                       !- September Surface Ground Temperature {C}
  14.5920754632847,                       !- October Surface Ground Temperature {C}
  11.374036348653,                        !- November Surface Ground Temperature {C}
  7.68182621661674;                       !- December Surface Ground Temperature {C}

OS:ThermalZone,
  {d553011c-b1f6-4f7a-92a4-b31d23182601}, !- Handle
  conditioned space,                      !- Name
  1,                                      !- Multiplier
  ,                                       !- Ceiling Height {m}
  692.06373070848,                        !- Volume {m3}
  ,                                       !- Floor Area {m2}
  ,                                       !- Zone Inside Convection Algorithm
  ,                                       !- Zone Outside Convection Algorithm
  ,                                       !- Zone Conditioning Equipment List Name
  {25a5fd0d-992c-4446-9711-122d98e56b39}, !- Zone Air Inlet Port List
  {8f99ad6d-3261-4c7f-88a7-46ed7163fc61}, !- Zone Air Exhaust Port List
  {af23d5a2-4b2e-4af0-a257-c3821269ec73}, !- Zone Air Node Name
  {304869b4-6d65-4a81-8cb8-18c166d95e16}, !- Zone Return Air Port List
  ,                                       !- Primary Daylighting Control Name
  ,                                       !- Fraction of Zone Controlled by Primary Daylighting Control
  ,                                       !- Secondary Daylighting Control Name
  ,                                       !- Fraction of Zone Controlled by Secondary Daylighting Control
  ,                                       !- Illuminance Map Name
  ,                                       !- Group Rendering Name
  {6d11400d-951a-4d0d-9f5b-96aaa5531069}, !- Thermostat Name
  No;                                     !- Use Ideal Air Loads

OS:Node,
  {8f0e31b3-3489-4486-9d10-5bf9d58783df}, !- Handle
  Node 1,                                 !- Name
  {af23d5a2-4b2e-4af0-a257-c3821269ec73}, !- Inlet Port
  ;                                       !- Outlet Port

OS:Connection,
  {af23d5a2-4b2e-4af0-a257-c3821269ec73}, !- Handle
  {d553011c-b1f6-4f7a-92a4-b31d23182601}, !- Source Object
  11,                                     !- Outlet Port
  {8f0e31b3-3489-4486-9d10-5bf9d58783df}, !- Target Object
  2;                                      !- Inlet Port

OS:PortList,
  {25a5fd0d-992c-4446-9711-122d98e56b39}, !- Handle
  {d553011c-b1f6-4f7a-92a4-b31d23182601}, !- HVAC Component
  {07fac3c4-b9bb-41a3-a6f7-78f9acf83464}, !- Port 1
  {9594d4f5-50ed-40b3-9c67-71d957c93989}; !- Port 2

OS:PortList,
  {8f99ad6d-3261-4c7f-88a7-46ed7163fc61}, !- Handle
  {d553011c-b1f6-4f7a-92a4-b31d23182601}; !- HVAC Component

OS:PortList,
  {304869b4-6d65-4a81-8cb8-18c166d95e16}, !- Handle
  {d553011c-b1f6-4f7a-92a4-b31d23182601}, !- HVAC Component
  {494dfb10-8cb5-4f2e-a8a9-c8dbbd2af0f3}, !- Port 1
  {3bac8dfc-b204-4201-8a72-b65a00cddeb5}; !- Port 2

OS:Sizing:Zone,
  {7fab5030-e22b-4b8c-a639-2479db9472e4}, !- Handle
  {d553011c-b1f6-4f7a-92a4-b31d23182601}, !- Zone or ZoneList Name
  SupplyAirTemperature,                   !- Zone Cooling Design Supply Air Temperature Input Method
  14,                                     !- Zone Cooling Design Supply Air Temperature {C}
  11.11,                                  !- Zone Cooling Design Supply Air Temperature Difference {deltaC}
  SupplyAirTemperature,                   !- Zone Heating Design Supply Air Temperature Input Method
  40,                                     !- Zone Heating Design Supply Air Temperature {C}
  11.11,                                  !- Zone Heating Design Supply Air Temperature Difference {deltaC}
  0.0085,                                 !- Zone Cooling Design Supply Air Humidity Ratio {kg-H2O/kg-air}
  0.008,                                  !- Zone Heating Design Supply Air Humidity Ratio {kg-H2O/kg-air}
  ,                                       !- Zone Heating Sizing Factor
  ,                                       !- Zone Cooling Sizing Factor
  DesignDay,                              !- Cooling Design Air Flow Method
  ,                                       !- Cooling Design Air Flow Rate {m3/s}
  ,                                       !- Cooling Minimum Air Flow per Zone Floor Area {m3/s-m2}
  ,                                       !- Cooling Minimum Air Flow {m3/s}
  ,                                       !- Cooling Minimum Air Flow Fraction
  DesignDay,                              !- Heating Design Air Flow Method
  ,                                       !- Heating Design Air Flow Rate {m3/s}
  ,                                       !- Heating Maximum Air Flow per Zone Floor Area {m3/s-m2}
  ,                                       !- Heating Maximum Air Flow {m3/s}
  ,                                       !- Heating Maximum Air Flow Fraction
  No,                                     !- Account for Dedicated Outdoor Air System
  NeutralSupplyAir,                       !- Dedicated Outdoor Air System Control Strategy
  autosize,                               !- Dedicated Outdoor Air Low Setpoint Temperature for Design {C}
  autosize,                               !- Dedicated Outdoor Air High Setpoint Temperature for Design {C}
  Sensible Load Only No Latent Load,      !- Zone Load Sizing Method
  HumidityRatioDifference,                !- Zone Latent Cooling Design Supply Air Humidity Ratio Input Method
  ,                                       !- Zone Dehumidification Design Supply Air Humidity Ratio {kgWater/kgDryAir}
  0.005,                                  !- Zone Cooling Design Supply Air Humidity Ratio Difference {kgWater/kgDryAir}
  HumidityRatioDifference,                !- Zone Latent Heating Design Supply Air Humidity Ratio Input Method
  ,                                       !- Zone Humidification Design Supply Air Humidity Ratio {kgWater/kgDryAir}
  0.005,                                  !- Zone Humidification Design Supply Air Humidity Ratio Difference {kgWater/kgDryAir}
  ,                                       !- Zone Humidistat Dehumidification Set Point Schedule Name
  ,                                       !- Zone Humidistat Humidification Set Point Schedule Name
  ,                                       !- Design Zone Air Distribution Effectiveness in Cooling Mode
  ,                                       !- Design Zone Air Distribution Effectiveness in Heating Mode
  ,                                       !- Design Zone Secondary Recirculation Fraction {dimensionless}
  ,                                       !- Design Minimum Zone Ventilation Efficiency {dimensionless}
  Coincident;                             !- Sizing Option

OS:ZoneHVAC:EquipmentList,
  {e793ca27-80de-47cb-85bd-315ada72c29d}, !- Handle
  Zone HVAC Equipment List 1,             !- Name
  {d553011c-b1f6-4f7a-92a4-b31d23182601}, !- Thermal Zone
  ,                                       !- Load Distribution Scheme
  {7d016db1-3569-480b-b252-565b5695bc2d}, !- Zone Equipment 1
  1,                                      !- Zone Equipment Cooling Sequence 1
  1,                                      !- Zone Equipment Heating or No-Load Sequence 1
  {58f1e191-bce8-4a72-95f4-1251e1e609d0}, !- Zone Equipment Sequential Cooling Fraction Schedule Name 1
  {2efc094a-4e38-4d4c-8217-a5ed5b0beb49}, !- Zone Equipment Sequential Heating Fraction Schedule Name 1
  {dd5da496-bdf2-4183-bb72-8d5a3d276364}, !- Zone Equipment 2
  2,                                      !- Zone Equipment Cooling Sequence 2
  2,                                      !- Zone Equipment Heating or No-Load Sequence 2
  {16ae5aab-1657-4d50-a06c-aab35389f37a}, !- Zone Equipment Sequential Cooling Fraction Schedule Name 2
  {8c9328d6-cf4b-420b-b863-00f5cc99f8d0}; !- Zone Equipment Sequential Heating Fraction Schedule Name 2

OS:AdditionalProperties,
  {c76976e5-d21e-4b47-839e-85a6f9781a3f}, !- Handle
  {d553011c-b1f6-4f7a-92a4-b31d23182601}, !- Object Name
  ObjectType,                             !- Feature Name 1
  String,                                 !- Feature Data Type 1
  conditioned space;                      !- Feature Value 1

OS:Space,
  {a009d918-16cd-4c54-a444-5db4d17653e3}, !- Handle
  conditioned space 1,                    !- Name
  ,                                       !- Space Type Name
  ,                                       !- Default Construction Set Name
  ,                                       !- Default Schedule Set Name
  ,                                       !- Direction of Relative North {deg}
  ,                                       !- X Origin {m}
  ,                                       !- Y Origin {m}
  ,                                       !- Z Origin {m}
  ,                                       !- Building Story Name
  {d553011c-b1f6-4f7a-92a4-b31d23182601}, !- Thermal Zone Name
  ,                                       !- Part of Total Floor Area
  ,                                       !- Design Specification Outdoor Air Object Name
  ,                                       !- Building Unit Name
  692.06373070848;                        !- Volume {m3}

OS:Schedule:Ruleset,
  {acc11d5e-bf8a-4946-93ac-59f6072ed732}, !- Handle
  heating setpoint,                       !- Name
  {7e8394ff-97d3-4350-8f9b-32afaa779ba6}, !- Schedule Type Limits Name
  {a4184739-332f-4801-931f-ac1853095b94}; !- Default Day Schedule Name

OS:Schedule:Day,
  {a4184739-332f-4801-931f-ac1853095b94}, !- Handle
  heating setpoint default day,           !- Name
  {7e8394ff-97d3-4350-8f9b-32afaa779ba6}, !- Schedule Type Limits Name
  ,                                       !- Interpolate to Timestep
  24,                                     !- Hour 1
  0,                                      !- Minute 1
  0;                                      !- Value Until Time 1

OS:Schedule:Rule,
  {b7d0590a-d8d7-4b2e-8410-218b99e9d1fe}, !- Handle
  heating setpoint allday rule,           !- Name
  {acc11d5e-bf8a-4946-93ac-59f6072ed732}, !- Schedule Ruleset Name
  0,                                      !- Rule Order
  {56ef9781-28d6-497f-94e9-998b048985d3}, !- Day Schedule Name
  Yes,                                    !- Apply Sunday
  Yes,                                    !- Apply Monday
  Yes,                                    !- Apply Tuesday
  Yes,                                    !- Apply Wednesday
  Yes,                                    !- Apply Thursday
  Yes,                                    !- Apply Friday
  Yes,                                    !- Apply Saturday
  DateRange,                              !- Date Specification Type
  1,                                      !- Start Month
  1,                                      !- Start Day
  12,                                     !- End Month
  31;                                     !- End Day

OS:Schedule:Day,
  {56ef9781-28d6-497f-94e9-998b048985d3}, !- Handle
  heating setpoint day,                   !- Name
  {7e8394ff-97d3-4350-8f9b-32afaa779ba6}, !- Schedule Type Limits Name
  ,                                       !- Interpolate to Timestep
  24,                                     !- Hour 1
  0,                                      !- Minute 1
  20;                                     !- Value Until Time 1

OS:Schedule:Ruleset,
  {b595f86a-ddc5-4f9f-9f26-39d67b2826f8}, !- Handle
  cooling setpoint,                       !- Name
  {7e8394ff-97d3-4350-8f9b-32afaa779ba6}, !- Schedule Type Limits Name
  {88fb0ed0-1c72-4bd6-8215-283605bdfd41}; !- Default Day Schedule Name

OS:Schedule:Day,
  {88fb0ed0-1c72-4bd6-8215-283605bdfd41}, !- Handle
  cooling setpoint default day,           !- Name
  {7e8394ff-97d3-4350-8f9b-32afaa779ba6}, !- Schedule Type Limits Name
  ,                                       !- Interpolate to Timestep
  24,                                     !- Hour 1
  0,                                      !- Minute 1
  0;                                      !- Value Until Time 1

OS:Schedule:Rule,
  {cd77708c-64d0-40c9-8c1f-8efd69e633a7}, !- Handle
  cooling setpoint allday rule,           !- Name
  {b595f86a-ddc5-4f9f-9f26-39d67b2826f8}, !- Schedule Ruleset Name
  0,                                      !- Rule Order
  {6b35a57b-9e39-40ca-a438-604aac6cd608}, !- Day Schedule Name
  Yes,                                    !- Apply Sunday
  Yes,                                    !- Apply Monday
  Yes,                                    !- Apply Tuesday
  Yes,                                    !- Apply Wednesday
  Yes,                                    !- Apply Thursday
  Yes,                                    !- Apply Friday
  Yes,                                    !- Apply Saturday
  DateRange,                              !- Date Specification Type
  1,                                      !- Start Month
  1,                                      !- Start Day
  12,                                     !- End Month
  31;                                     !- End Day

OS:Schedule:Day,
  {6b35a57b-9e39-40ca-a438-604aac6cd608}, !- Handle
  cooling setpoint day,                   !- Name
  {7e8394ff-97d3-4350-8f9b-32afaa779ba6}, !- Schedule Type Limits Name
  ,                                       !- Interpolate to Timestep
  24,                                     !- Hour 1
  0,                                      !- Minute 1
  25.5555555555556;                       !- Value Until Time 1

OS:ThermostatSetpoint:DualSetpoint,
  {6d11400d-951a-4d0d-9f5b-96aaa5531069}, !- Handle
  conditioned space temperature setpoint, !- Name
  {acc11d5e-bf8a-4946-93ac-59f6072ed732}, !- Heating Setpoint Temperature Schedule Name
  {b595f86a-ddc5-4f9f-9f26-39d67b2826f8}, !- Cooling Setpoint Temperature Schedule Name
  0;                                      !- Temperature Difference Between Cutout And Setpoint {deltaC}

OS:ScheduleTypeLimits,
  {7e8394ff-97d3-4350-8f9b-32afaa779ba6}, !- Handle
  Temperature,                            !- Name
  ,                                       !- Lower Limit Value
  ,                                       !- Upper Limit Value
  Continuous,                             !- Numeric Type
  Temperature;                            !- Unit Type

OS:Surface,
  {4998e402-22fb-4166-a884-820ac5ae2398}, !- Handle
  Roof1,                                  !- Name
  RoofCeiling,                            !- Surface Type
  {c7e3e27f-f39b-43b0-bdb4-745e28b8a6ac}, !- Construction Name
  {a3e4d49a-f66e-469a-8f2e-7a216e7f2df2}, !- Space Name
  Outdoors,                               !- Outside Boundary Condition
  ,                                       !- Outside Boundary Condition Object
  SunExposed,                             !- Sun Exposure
  WindExposed,                            !- Wind Exposure
  ,                                       !- View Factor to Ground
  ,                                       !- Number of Vertices
  -26.9347048849634, 58.0557891618865, 2.4384, !- X,Y,Z Vertex 1 {m}
  -26.9347048849634, 46.7895631136661, 8.0715130241102, !- X,Y,Z Vertex 2 {m}
  -14.3386812381136, 46.7895631136661, 8.0715130241102, !- X,Y,Z Vertex 3 {m}
  -14.3386812381136, 58.0557891618865, 2.4384; !- X,Y,Z Vertex 4 {m}

OS:AdditionalProperties,
  {33509a90-bf50-4735-a605-5e41808b27a9}, !- Handle
  {4998e402-22fb-4166-a884-820ac5ae2398}, !- Object Name
  Length,                                 !- Feature Name 1
  Double,                                 !- Feature Data Type 1
  41.325536899113608,                     !- Feature Value 1
  Width,                                  !- Feature Name 2
  Double,                                 !- Feature Data Type 2
  41.325536899113601,                     !- Feature Value 2
  Azimuth,                                !- Feature Name 3
  Integer,                                !- Feature Data Type 3
  0,                                      !- Feature Value 3
  Tilt,                                   !- Feature Name 4
  Double,                                 !- Feature Data Type 4
  0.5,                                    !- Feature Value 4
  SurfaceType,                            !- Feature Name 5
  String,                                 !- Feature Data Type 5
  Roof;                                   !- Feature Value 5

OS:ThermalZone,
  {c29f306d-19d7-49f9-8a85-b389fdb01024}, !- Handle
  attic - vented,                         !- Name
  1,                                      !- Multiplier
  ,                                       !- Ceiling Height {m}
  356.390921899745,                       !- Volume {m3}
  ,                                       !- Floor Area {m2}
  ,                                       !- Zone Inside Convection Algorithm
  ,                                       !- Zone Outside Convection Algorithm
  ,                                       !- Zone Conditioning Equipment List Name
  {752d51d7-f2a7-4ab8-a727-508275db6ece}, !- Zone Air Inlet Port List
  {51c73697-2d10-4641-8a46-9358a90f8c4f}, !- Zone Air Exhaust Port List
  {dc7c9547-8df0-41f2-ab25-c499b74a31ff}, !- Zone Air Node Name
  {31b6915d-a93c-4238-98b8-9a5c8fa09781}, !- Zone Return Air Port List
  ,                                       !- Primary Daylighting Control Name
  ,                                       !- Fraction of Zone Controlled by Primary Daylighting Control
  ,                                       !- Secondary Daylighting Control Name
  ,                                       !- Fraction of Zone Controlled by Secondary Daylighting Control
  ,                                       !- Illuminance Map Name
  ,                                       !- Group Rendering Name
  ,                                       !- Thermostat Name
  No;                                     !- Use Ideal Air Loads

OS:Node,
  {d0569caf-cdfa-4b04-b286-4c9009f50837}, !- Handle
  Node 2,                                 !- Name
  {dc7c9547-8df0-41f2-ab25-c499b74a31ff}, !- Inlet Port
  ;                                       !- Outlet Port

OS:Connection,
  {dc7c9547-8df0-41f2-ab25-c499b74a31ff}, !- Handle
  {c29f306d-19d7-49f9-8a85-b389fdb01024}, !- Source Object
  11,                                     !- Outlet Port
  {d0569caf-cdfa-4b04-b286-4c9009f50837}, !- Target Object
  2;                                      !- Inlet Port

OS:PortList,
  {752d51d7-f2a7-4ab8-a727-508275db6ece}, !- Handle
  {c29f306d-19d7-49f9-8a85-b389fdb01024}; !- HVAC Component

OS:PortList,
  {51c73697-2d10-4641-8a46-9358a90f8c4f}, !- Handle
  {c29f306d-19d7-49f9-8a85-b389fdb01024}; !- HVAC Component

OS:PortList,
  {31b6915d-a93c-4238-98b8-9a5c8fa09781}, !- Handle
  {c29f306d-19d7-49f9-8a85-b389fdb01024}; !- HVAC Component

OS:Sizing:Zone,
  {f6baf3f3-ad2e-4b43-bd41-b8f90623388c}, !- Handle
  {c29f306d-19d7-49f9-8a85-b389fdb01024}, !- Zone or ZoneList Name
  SupplyAirTemperature,                   !- Zone Cooling Design Supply Air Temperature Input Method
  14,                                     !- Zone Cooling Design Supply Air Temperature {C}
  11.11,                                  !- Zone Cooling Design Supply Air Temperature Difference {deltaC}
  SupplyAirTemperature,                   !- Zone Heating Design Supply Air Temperature Input Method
  40,                                     !- Zone Heating Design Supply Air Temperature {C}
  11.11,                                  !- Zone Heating Design Supply Air Temperature Difference {deltaC}
  0.0085,                                 !- Zone Cooling Design Supply Air Humidity Ratio {kg-H2O/kg-air}
  0.008,                                  !- Zone Heating Design Supply Air Humidity Ratio {kg-H2O/kg-air}
  ,                                       !- Zone Heating Sizing Factor
  ,                                       !- Zone Cooling Sizing Factor
  DesignDay,                              !- Cooling Design Air Flow Method
  ,                                       !- Cooling Design Air Flow Rate {m3/s}
  ,                                       !- Cooling Minimum Air Flow per Zone Floor Area {m3/s-m2}
  ,                                       !- Cooling Minimum Air Flow {m3/s}
  ,                                       !- Cooling Minimum Air Flow Fraction
  DesignDay,                              !- Heating Design Air Flow Method
  ,                                       !- Heating Design Air Flow Rate {m3/s}
  ,                                       !- Heating Maximum Air Flow per Zone Floor Area {m3/s-m2}
  ,                                       !- Heating Maximum Air Flow {m3/s}
  ,                                       !- Heating Maximum Air Flow Fraction
  No,                                     !- Account for Dedicated Outdoor Air System
  NeutralSupplyAir,                       !- Dedicated Outdoor Air System Control Strategy
  autosize,                               !- Dedicated Outdoor Air Low Setpoint Temperature for Design {C}
  autosize,                               !- Dedicated Outdoor Air High Setpoint Temperature for Design {C}
  Sensible Load Only No Latent Load,      !- Zone Load Sizing Method
  HumidityRatioDifference,                !- Zone Latent Cooling Design Supply Air Humidity Ratio Input Method
  ,                                       !- Zone Dehumidification Design Supply Air Humidity Ratio {kgWater/kgDryAir}
  0.005,                                  !- Zone Cooling Design Supply Air Humidity Ratio Difference {kgWater/kgDryAir}
  HumidityRatioDifference,                !- Zone Latent Heating Design Supply Air Humidity Ratio Input Method
  ,                                       !- Zone Humidification Design Supply Air Humidity Ratio {kgWater/kgDryAir}
  0.005,                                  !- Zone Humidification Design Supply Air Humidity Ratio Difference {kgWater/kgDryAir}
  ,                                       !- Zone Humidistat Dehumidification Set Point Schedule Name
  ,                                       !- Zone Humidistat Humidification Set Point Schedule Name
  ,                                       !- Design Zone Air Distribution Effectiveness in Cooling Mode
  ,                                       !- Design Zone Air Distribution Effectiveness in Heating Mode
  ,                                       !- Design Zone Secondary Recirculation Fraction {dimensionless}
  ,                                       !- Design Minimum Zone Ventilation Efficiency {dimensionless}
  Coincident;                             !- Sizing Option

OS:ZoneHVAC:EquipmentList,
  {7b05fc14-e7d5-44fa-9704-2684a605c8eb}, !- Handle
  Zone HVAC Equipment List 2,             !- Name
  {c29f306d-19d7-49f9-8a85-b389fdb01024}; !- Thermal Zone

OS:AdditionalProperties,
  {08a18290-0329-41a0-a07e-c5ac4cb0b848}, !- Handle
  {c29f306d-19d7-49f9-8a85-b389fdb01024}, !- Object Name
  ObjectType,                             !- Feature Name 1
  String,                                 !- Feature Data Type 1
  attic - vented;                         !- Feature Value 1

OS:Space,
  {a3e4d49a-f66e-469a-8f2e-7a216e7f2df2}, !- Handle
  attic - vented 1,                       !- Name
  ,                                       !- Space Type Name
  ,                                       !- Default Construction Set Name
  ,                                       !- Default Schedule Set Name
  ,                                       !- Direction of Relative North {deg}
  ,                                       !- X Origin {m}
  ,                                       !- Y Origin {m}
  ,                                       !- Z Origin {m}
  ,                                       !- Building Story Name
  {c29f306d-19d7-49f9-8a85-b389fdb01024}, !- Thermal Zone Name
  ,                                       !- Part of Total Floor Area
  ,                                       !- Design Specification Outdoor Air Object Name
  ,                                       !- Building Unit Name
  356.390921899745;                       !- Volume {m3}

OS:Material,