
OS:Version,
  {7466d461-1c16-4c45-8777-036f0b98ee3e}, !- Handle
  3.9.0;                                  !- Version Identifier

OS:SimulationControl,
  {ed169373-342d-43b3-89b7-be1aa40e2185}, !- Handle
  ,                                       !- Do Zone Sizing Calculation
  ,                                       !- Do System Sizing Calculation
  ,                                       !- Do Plant Sizing Calculation
  No;                                     !- Run Simulation for Sizing Periods

OS:Timestep,
  {1bcf5bae-32c4-4b71-bbc2-2e13e56b1e45}, !- Handle
  1;                                      !- Number of Timesteps per Hour

OS:ShadowCalculation,
  {5389b01d-0db4-4b4a-ac9e-f67bb3c10660}, !- Handle
  PolygonClipping,                        !- Shading Calculation Method
  ,                                       !- Shading Calculation Update Frequency Method
  20,                                     !- Shading Calculation Update Frequency
  200,                                    !- Maximum Figures in Shadow Overlap Calculations
  ,                                       !- Polygon Clipping Algorithm
  512,                                    !- Pixel Counting Resolution
  ,                                       !- Sky Diffuse Modeling Algorithm
  No,                                     !- Output External Shading Calculation Results
  No,                                     !- Disable Self-Shading Within Shading Zone Groups
  No;                                     !- Disable Self-Shading From Shading Zone Groups to Other Zones

OS:SurfaceConvectionAlgorithm:Outside,
  {296f70da-a604-4525-8458-a56a12716726}, !- Handle
  DOE-2;                                  !- Algorithm

OS:SurfaceConvectionAlgorithm:Inside,
  {2f7c1982-16b3-48d3-9816-5e1ebcb780e8}, !- Handle
  TARP;                                   !- Algorithm

OS:ZoneCapacitanceMultiplier:ResearchSpecial,
  {c3222eec-8087-4e85-95a9-7d2da42801a0}, !- Handle
  7,                                      !- Temperature Capacity Multiplier
  15,                                     !- Humidity Capacity Multiplier
  ;                                       !- Carbon Dioxide Capacity Multiplier

OS:ConvergenceLimits,
  {06fb4852-6bbe-4f18-b375-6590d0fca3ec}, !- Handle
  0;                                      !- Minimum System Timestep {minutes}

OS:RunPeriod,
  {e2aa9ef7-2d53-483b-b1d6-aa0094cc12c8}, !- Handle
  Run Period 1,                           !- Name
  1,                                      !- Begin Month
  1,                                      !- Begin Day of Month
  12,                                     !- End Month
  31,                                     !- End Day of Month
  ,                                       !- Use Weather File Holidays and Special Days
  ,                                       !- Use Weather File Daylight Saving Period
  ,                                       !- Apply Weekend Holiday Rule
  ,                                       !- Use Weather File Rain Indicators
  ,                                       !- Use Weather File Snow Indicators
  ;                                       !- Number of Times Runperiod to be Repeated

OS:PerformancePrecisionTradeoffs,
  {29676975-674d-4b3e-9042-013567ff9b12}, !- Handle
  ,                                       !- Use Coil Direct Solutions
  CarrollMRT;                             !- Zone Radiant Exchange Algorithm

OS:WeatherFile,
  {a65c6d73-d51f-4ef3-b1a4-d658e212e3a1}, !- Handle
  Buffalo Niagara Intl Ap,                !- City
  NY,                                     !- State Province Region
  USA,                                    !- Country
  TMY3,                                   !- Data Source
  725280,                                 !- WMO Number
  42.93,                                  !- Latitude {deg}
  -78.73,                                 !- Longitude {deg}
  -5,                                     !- Time Zone {hr}
  215,                                    !- Elevation {m}
  /Users/nmoore/github/urbanopt-example-geojson-project/example_project/weather/USA_NY_Buffalo-Greater.Buffalo.Intl.AP.725280_TMY3.epw, !- Url
  6B50E0FF,                               !- Checksum
  ,                                       !- Start Date Actual Year
  Sunday;                                 !- Start Day of Week

OS:YearDescription,
  {f1ac91a4-cafa-4b07-9d6a-f9a666184b7d}, !- Handle
  2007,                                   !- Calendar Year
  ,                                       !- Day of Week for Start Day
  ;                                       !- Is Leap Year

OS:Site,
  {1d980606-1bbd-4aab-a01d-daafce3dcd7e}, !- Handle
  Buffalo Niagara Intl Ap_NY,             !- Name
  42.93,                                  !- Latitude {deg}
  -78.73,                                 !- Longitude {deg}
  -5,                                     !- Time Zone {hr}
  215,                                    !- Elevation {m}
  Suburbs,                                !- Terrain
  Yes;                                    !- Keep Site Location Information

OS:RunPeriodControl:DaylightSavingTime,
  {62817d76-d2fb-4007-9402-c056921a4814}, !- Handle
  Mar 12,                                 !- Start Date
  Nov 5;                                  !- End Date

OS:Site:GroundTemperature:Shallow,
  {59e15540-f0c0-4073-bf9d-4d88b296b53b}, !- Handle
  4.30207395723828,                       !- January Surface Ground Temperature {C}
  2.29327249652502,                       !- February Surface Ground Temperature {C}
  2.13240047156047,                       !- March Surface Ground Temperature {C}
  3.08567940719286,                       !- April Surface Ground Temperature {C}
  6.91256312497526,                       !- May Surface Ground Temperature {C}
  10.7216195949507,                       !- June Surface Ground Temperature {C}
  14.0238679822574,                       !- July Surface Ground Temperature {C}
  16.1157611184724,                       !- August Surface Ground Temperature {C}
  16.2934789303462,                       !- September Surface Ground Temperature {C}
  14.5920754632847,                       !- October Surface Ground Temperature {C}
  11.374036348653,                        !- November Surface Ground Temperature {C}
  7.68182621661674;                       !- December Surface Ground Temperature {C}

OS:ThermalZone,
  {98c61609-95aa-4e99-8581-443968080047}, !- Handle
  conditioned space,                      !- Name
  1,                                      !- Multiplier
  ,                                       !- Ceiling Height {m}
  692.06373070848,                        !- Volume {m3}
  ,                                       !- Floor Area {m2}
  ,                                       !- Zone Inside Convection Algorithm
  ,                                       !- Zone Outside Convection Algorithm
  ,                                       !- Zone Conditioning Equipment List Name
  {d8f687c6-6a8a-4482-a537-4e85090a4dfe}, !- Zone Air Inlet Port List
  {14d03861-a961-420f-b37c-bc83fe8fcdc9}, !- Zone Air Exhaust Port List
  {7dc926b6-ad66-4cf1-bb45-8b524d5e67e9}, !- Zone Air Node Name
  {d65aca76-73b3-4845-9ced-0038bd8d7721}, !- Zone Return Air Port List
  ,                                       !- Primary Daylighting Control Name
  ,                                       !- Fraction of Zone Controlled by Primary Daylighting Control
  ,                                       !- Secondary Daylighting Control Name
  ,                                       !- Fraction of Zone Controlled by Secondary Daylighting Control
  ,                                       !- Illuminance Map Name
  ,                                       !- Group Rendering Name
  {9ce29a37-75f7-4599-a042-a844a07959cf}, !- Thermostat Name
  No;                                     !- Use Ideal Air Loads

OS:Node,
  {d7e6b486-b366-44d5-8e0e-3bb7726326d0}, !- Handle
  Node 1,                                 !- Name
  {7dc926b6-ad66-4cf1-bb45-8b524d5e67e9}, !- Inlet Port
  ;                                       !- Outlet Port

OS:Connection,
  {7dc926b6-ad66-4cf1-bb45-8b524d5e67e9}, !- Handle
  {98c61609-95aa-4e99-8581-443968080047}, !- Source Object
  11,                                     !- Outlet Port
  {d7e6b486-b366-44d5-8e0e-3bb7726326d0}, !- Target Object
  2;                                      !- Inlet Port

OS:PortList,
  {d8f687c6-6a8a-4482-a537-4e85090a4dfe}, !- Handle
  {98c61609-95aa-4e99-8581-443968080047}, !- HVAC Component
  {a0092a98-00c5-4f05-af50-4df412127e2f}, !- Port 1
  {d4a3964a-0879-49e0-a857-bface6b130be}; !- Port 2

OS:PortList,
  {14d03861-a961-420f-b37c-bc83fe8fcdc9}, !- Handle
  {98c61609-95aa-4e99-8581-443968080047}; !- HVAC Component

OS:PortList,
  {d65aca76-73b3-4845-9ced-0038bd8d7721}, !- Handle
  {98c61609-95aa-4e99-8581-443968080047}, !- HVAC Component
  {5a608cf3-6482-4639-92f5-4586899976e4}, !- Port 1
  {914a9fd8-1462-42fa-87f1-e57e437fff52}; !- Port 2

OS:Sizing:Zone,
  {54f2316a-1668-46c6-a540-c89c9d700007}, !- Handle
  {98c61609-95aa-4e99-8581-443968080047}, !- Zone or ZoneList Name
  SupplyAirTemperature,                   !- Zone Cooling Design Supply Air Temperature Input Method
  14,                                     !- Zone Cooling Design Supply Air Temperature {C}
  11.11,                                  !- Zone Cooling Design Supply Air Temperature Difference {deltaC}
  SupplyAirTemperature,                   !- Zone Heating Design Supply Air Temperature Input Method
  40,                                     !- Zone Heating Design Supply Air Temperature {C}
  11.11,                                  !- Zone Heating Design Supply Air Temperature Difference {deltaC}
  0.0085,                                 !- Zone Cooling Design Supply Air Humidity Ratio {kg-H2O/kg-air}
  0.008,                                  !- Zone Heating Design Supply Air Humidity Ratio {kg-H2O/kg-air}
  ,                                       !- Zone Heating Sizing Factor
  ,                                       !- Zone Cooling Sizing Factor
  DesignDay,                              !- Cooling Design Air Flow Method
  ,                                       !- Cooling Design Air Flow Rate {m3/s}
  ,                                       !- Cooling Minimum Air Flow per Zone Floor Area {m3/s-m2}
  ,                                       !- Cooling Minimum Air Flow {m3/s}
  ,                                       !- Cooling Minimum Air Flow Fraction
  DesignDay,                              !- Heating Design Air Flow Method
  ,                                       !- Heating Design Air Flow Rate {m3/s}
  ,                                       !- Heating Maximum Air Flow per Zone Floor Area {m3/s-m2}
  ,                                       !- Heating Maximum Air Flow {m3/s}
  ,                                       !- Heating Maximum Air Flow Fraction
  No,                                     !- Account for Dedicated Outdoor Air System
  NeutralSupplyAir,                       !- Dedicated Outdoor Air System Control Strategy
  autosize,                               !- Dedicated Outdoor Air Low Setpoint Temperature for Design {C}
  autosize,                               !- Dedicated Outdoor Air High Setpoint Temperature for Design {C}
  Sensible Load Only No Latent Load,      !- Zone Load Sizing Method
  HumidityRatioDifference,                !- Zone Latent Cooling Design Supply Air Humidity Ratio Input Method
  ,                                       !- Zone Dehumidification Design Supply Air Humidity Ratio {kgWater/kgDryAir}
  0.005,                                  !- Zone Cooling Design Supply Air Humidity Ratio Difference {kgWater/kgDryAir}
  HumidityRatioDifference,                !- Zone Latent Heating Design Supply Air Humidity Ratio Input Method
  ,                                       !- Zone Humidification Design Supply Air Humidity Ratio {kgWater/kgDryAir}
  0.005,                                  !- Zone Humidification Design Supply Air Humidity Ratio Difference {kgWater/kgDryAir}
  ,                                       !- Zone Humidistat Dehumidification Set Point Schedule Name
  ,                                       !- Zone Humidistat Humidification Set Point Schedule Name
  ,                                       !- Design Zone Air Distribution Effectiveness in Cooling Mode
  ,                                       !- Design Zone Air Distribution Effectiveness in Heating Mode
  ,                                       !- Design Zone Secondary Recirculation Fraction {dimensionless}
  ,                                       !- Design Minimum Zone Ventilation Efficiency {dimensionless}
  Coincident;                             !- Sizing Option

OS:ZoneHVAC:EquipmentList,
  {46b9c145-56cb-413f-be15-f750cb2f4d38}, !- Handle
  Zone HVAC Equipment List 1,             !- Name
  {98c61609-95aa-4e99-8581-443968080047}, !- Thermal Zone
  ,                                       !- Load Distribution Scheme
  {345c5520-4c04-421b-a3ff-ddb20a719607}, !- Zone Equipment 1
  1,                                      !- Zone Equipment Cooling Sequence 1
  1,                                      !- Zone Equipment Heating or No-Load Sequence 1
  {f1d64fcc-1f33-4bca-bc7f-66685f583b9c}, !- Zone Equipment Sequential Cooling Fraction Schedule Name 1
  {65eef83f-0eee-4322-a5a3-1c559e851541}, !- Zone Equipment Sequential Heating Fraction Schedule Name 1
  {2f40f4d0-e38d-4165-a913-bb960839b681}, !- Zone Equipment 2
  2,                                      !- Zone Equipment Cooling Sequence 2
  2,                                      !- Zone Equipment Heating or No-Load Sequence 2
  {fb83e09f-a89a-49de-bf7c-b7538e522b37}, !- Zone Equipment Sequential Cooling Fraction Schedule Name 2
  {de77cd4c-df47-4f7b-82e3-ead9cf0f00d4}; !- Zone Equipment Sequential Heating Fraction Schedule Name 2

OS:AdditionalProperties,
  {0fd5374c-158c-4ef9-89da-79da8f4f2934}, !- Handle
  {98c61609-95aa-4e99-8581-443968080047}, !- Object Name
  ObjectType,                             !- Feature Name 1
  String,                                 !- Feature Data Type 1
  conditioned space;                      !- Feature Value 1

OS:Space,
  {53b5938a-ad5c-4078-bf4d-71811c7428b8}, !- Handle
  conditioned space 1,                    !- Name
  ,                                       !- Space Type Name
  ,                                       !- Default Construction Set Name
  ,                                       !- Default Schedule Set Name
  ,                                       !- Direction of Relative North {deg}
  ,                                       !- X Origin {m}
  ,                                       !- Y Origin {m}
  ,                                       !- Z Origin {m}
  ,                                       !- Building Story Name
  {98c61609-95aa-4e99-8581-443968080047}, !- Thermal Zone Name
  ,                                       !- Part of Total Floor Area
  ,                                       !- Design Specification Outdoor Air Object Name
  ,                                       !- Building Unit Name
  692.06373070848;                        !- Volume {m3}

OS:Schedule:Ruleset,
  {769a95ae-f170-431a-906c-25166d174dd0}, !- Handle
  heating setpoint,                       !- Name
  {b7b6aeaa-ba65-4231-8cfd-67df1acc1b26}, !- Schedule Type Limits Name
  {8ea91e7d-08d2-4aa5-915c-c75a54b3b60a}; !- Default Day Schedule Name

OS:Schedule:Day,
  {8ea91e7d-08d2-4aa5-915c-c75a54b3b60a}, !- Handle
  heating setpoint default day,           !- Name
  {b7b6aeaa-ba65-4231-8cfd-67df1acc1b26}, !- Schedule Type Limits Name
  ,                                       !- Interpolate to Timestep
  24,                                     !- Hour 1
  0,                                      !- Minute 1
  0;                                      !- Value Until Time 1

OS:Schedule:Rule,
  {b5d62542-ad79-419f-9086-efd41f34c62b}, !- Handle
  heating setpoint allday rule,           !- Name
  {769a95ae-f170-431a-906c-25166d174dd0}, !- Schedule Ruleset Name
  0,                                      !- Rule Order
  {b2ddd7ca-4430-4626-bda9-43804c91dc8f}, !- Day Schedule Name
  Yes,                                    !- Apply Sunday
  Yes,                                    !- Apply Monday
  Yes,                                    !- Apply Tuesday
  Yes,                                    !- Apply Wednesday
  Yes,                                    !- Apply Thursday
  Yes,                                    !- Apply Friday
  Yes,                                    !- Apply Saturday
  DateRange,                              !- Date Specification Type
  1,                                      !- Start Month
  1,                                      !- Start Day
  12,                                     !- End Month
  31;                                     !- End Day

OS:Schedule:Day,
  {b2ddd7ca-4430-4626-bda9-43804c91dc8f}, !- Handle
  heating setpoint day,                   !- Name
  {b7b6aeaa-ba65-4231-8cfd-67df1acc1b26}, !- Schedule Type Limits Name
  ,                                       !- Interpolate to Timestep
  24,                                     !- Hour 1
  0,                                      !- Minute 1
  20;                                     !- Value Until Time 1

OS:Schedule:Ruleset,
  {e868dde3-9609-4d30-88f8-693d526b0df8}, !- Handle
  cooling setpoint,                       !- Name
  {b7b6aeaa-ba65-4231-8cfd-67df1acc1b26}, !- Schedule Type Limits Name
  {251e45fa-ea4b-4858-a5db-4f74fab8525a}; !- Default Day Schedule Name

OS:Schedule:Day,
  {251e45fa-ea4b-4858-a5db-4f74fab8525a}, !- Handle
  cooling setpoint default day,           !- Name
  {b7b6aeaa-ba65-4231-8cfd-67df1acc1b26}, !- Schedule Type Limits Name
  ,                                       !- Interpolate to Timestep
  24,                                     !- Hour 1
  0,                                      !- Minute 1
  0;                                      !- Value Until Time 1

OS:Schedule:Rule,
  {43774f14-aeed-4ebd-a613-c96ad343ecab}, !- Handle
  cooling setpoint allday rule,           !- Name
  {e868dde3-9609-4d30-88f8-693d526b0df8}, !- Schedule Ruleset Name
  0,                                      !- Rule Order
  {042cedba-ce96-4602-a338-2d47675ec426}, !- Day Schedule Name
  Yes,                                    !- Apply Sunday
  Yes,                                    !- Apply Monday
  Yes,                                    !- Apply Tuesday
  Yes,                                    !- Apply Wednesday
  Yes,                                    !- Apply Thursday
  Yes,                                    !- Apply Friday
  Yes,                                    !- Apply Saturday
  DateRange,                              !- Date Specification Type
  1,                                      !- Start Month
  1,                                      !- Start Day
  12,                                     !- End Month
  31;                                     !- End Day

OS:Schedule:Day,
  {042cedba-ce96-4602-a338-2d47675ec426}, !- Handle
  cooling setpoint day,                   !- Name
  {b7b6aeaa-ba65-4231-8cfd-67df1acc1b26}, !- Schedule Type Limits Name
  ,                                       !- Interpolate to Timestep
  24,                                     !- Hour 1
  0,                                      !- Minute 1
  25.5555555555556;                       !- Value Until Time 1

OS:ThermostatSetpoint:DualSetpoint,
  {9ce29a37-75f7-4599-a042-a844a07959cf}, !- Handle
  conditioned space temperature setpoint, !- Name
  {769a95ae-f170-431a-906c-25166d174dd0}, !- Heating Setpoint Temperature Schedule Name
  {e868dde3-9609-4d30-88f8-693d526b0df8}, !- Cooling Setpoint Temperature Schedule Name
  0;                                      !- Temperature Difference Between Cutout And Setpoint {deltaC}

OS:ScheduleTypeLimits,
  {b7b6aeaa-ba65-4231-8cfd-67df1acc1b26}, !- Handle
  Temperature,                            !- Name
  ,                                       !- Lower Limit Value
  ,                                       !- Upper Limit Value
  Continuous,                             !- Numeric Type
  Temperature;                            !- Unit Type

OS:Surface,
  {e9bf1009-4f1a-4980-8757-bace130c002f}, !- Handle
  Roof1,                                  !- Name
  RoofCeiling,                            !- Surface Type
  {3eb50cea-1252-474e-8749-6047631d57b0}, !- Construction Name
  {9f4f6274-1188-4480-b1a9-2ecd6873342f}, !- Space Name
  Outdoors,                               !- Outside Boundary Condition
  ,                                       !- Outside Boundary Condition Object
  SunExposed,                             !- Sun Exposure
  WindExposed,                            !- Wind Exposure
  ,                                       !- View Factor to Ground
  ,                                       !- Number of Vertices
  -26.9347048849634, 58.0557891618865, 2.4384, !- X,Y,Z Vertex 1 {m}
  -26.9347048849634, 46.7895631136661, 8.0715130241102, !- X,Y,Z Vertex 2 {m}
  -14.3386812381136, 46.7895631136661, 8.0715130241102, !- X,Y,Z Vertex 3 {m}
  -14.3386812381136, 58.0557891618865, 2.4384; !- X,Y,Z Vertex 4 {m}

OS:AdditionalProperties,
  {a083753e-34d0-489a-bdfa-522fc0dbc433}, !- Handle
  {e9bf1009-4f1a-4980-8757-bace130c002f}, !- Object Name
  Length,                                 !- Feature Name 1
  Double,                                 !- Feature Data Type 1
  41.325536899113608,                     !- Feature Value 1
  Width,                                  !- Feature Name 2
  Double,                                 !- Feature Data Type 2
  41.325536899113601,                     !- Feature Value 2
  Azimuth,                                !- Feature Name 3
  Integer,                                !- Feature Data Type 3
  0,                                      !- Feature Value 3
  Tilt,                                   !- Feature Name 4
  Double,                                 !- Feature Data Type 4
  0.5,                                    !- Feature Value 4
  SurfaceType,                            !- Feature Name 5
  String,                                 !- Feature Data Type 5
  Roof;                                   !- Feature Value 5

OS:ThermalZone,
  {ac9437b4-b972-4d6d-ad2c-9ba917ba5a10}, !- Handle
  attic - vented,                         !- Name
  1,                                      !- Multiplier
  ,                                       !- Ceiling Height {m}
  356.389957095237,                       !- Volume {m3}
  ,                                       !- Floor Area {m2}
  ,                                       !- Zone Inside Convection Algorithm
  ,                                       !- Zone Outside Convection Algorithm
  ,                                       !- Zone Conditioning Equipment List Name
  {909706df-4f5e-428f-a134-c7a963a9f632}, !- Zone Air Inlet Port List
  {78d4d39c-a143-4d09-8857-fafdbf96780e}, !- Zone Air Exhaust Port List
  {36f5a927-c6f4-4f98-a5a0-1e8a94efe313}, !- Zone Air Node Name
  {97542382-5f6e-4f5c-a47d-eea357c97af4}, !- Zone Return Air Port List
  ,                                       !- Primary Daylighting Control Name
  ,                                       !- Fraction of Zone Controlled by Primary Daylighting Control
  ,                                       !- Secondary Daylighting Control Name
  ,                                       !- Fraction of Zone Controlled by Secondary Daylighting Control
  ,                                       !- Illuminance Map Name
  ,                                       !- Group Rendering Name
  ,                                       !- Thermostat Name
  No;                                     !- Use Ideal Air Loads

OS:Node,
  {0e935da4-1dc4-4edb-bbe0-1aacc09da4e6}, !- Handle
  Node 2,                                 !- Name
  {36f5a927-c6f4-4f98-a5a0-1e8a94efe313}, !- Inlet Port
  ;                                       !- Outlet Port

OS:Connection,
  {36f5a927-c6f4-4f98-a5a0-1e8a94efe313}, !- Handle
  {ac9437b4-b972-4d6d-ad2c-9ba917ba5a10}, !- Source Object
  11,                                     !- Outlet Port
  {0e935da4-1dc4-4edb-bbe0-1aacc09da4e6}, !- Target Object
  2;                                      !- Inlet Port

OS:PortList,
  {909706df-4f5e-428f-a134-c7a963a9f632}, !- Handle
  {ac9437b4-b972-4d6d-ad2c-9ba917ba5a10}; !- HVAC Component

OS:PortList,
  {78d4d39c-a143-4d09-8857-fafdbf96780e}, !- Handle
  {ac9437b4-b972-4d6d-ad2c-9ba917ba5a10}; !- HVAC Component

OS:PortList,
  {97542382-5f6e-4f5c-a47d-eea357c97af4}, !- Handle
  {ac9437b4-b972-4d6d-ad2c-9ba917ba5a10}; !- HVAC Component

OS:Sizing:Zone,
  {09ab7bb4-6e9d-4168-8a6f-e086a9d73076}, !- Handle
  {ac9437b4-b972-4d6d-ad2c-9ba917ba5a10}, !- Zone or ZoneList Name
  SupplyAirTemperature,                   !- Zone Cooling Design Supply Air Temperature Input Method
  14,                                     !- Zone Cooling Design Supply Air Temperature {C}
  11.11,                                  !- Zone Cooling Design Supply Air Temperature Difference {deltaC}
  SupplyAirTemperature,                   !- Zone Heating Design Supply Air Temperature Input Method
  40,                                     !- Zone Heating Design Supply Air Temperature {C}
  11.11,                                  !- Zone Heating Design Supply Air Temperature Difference {deltaC}
  0.0085,                                 !- Zone Cooling Design Supply Air Humidity Ratio {kg-H2O/kg-air}
  0.008,                                  !- Zone Heating Design Supply Air Humidity Ratio {kg-H2O/kg-air}
  ,                                       !- Zone Heating Sizing Factor
  ,                                       !- Zone Cooling Sizing Factor
  DesignDay,                              !- Cooling Design Air Flow Method
  ,                                       !- Cooling Design Air Flow Rate {m3/s}
  ,                                       !- Cooling Minimum Air Flow per Zone Floor Area {m3/s-m2}
  ,                                       !- Cooling Minimum Air Flow {m3/s}
  ,                                       !- Cooling Minimum Air Flow Fraction
  DesignDay,                              !- Heating Design Air Flow Method
  ,                                       !- Heating Design Air Flow Rate {m3/s}
  ,                                       !- Heating Maximum Air Flow per Zone Floor Area {m3/s-m2}
  ,                                       !- Heating Maximum Air Flow {m3/s}
  ,                                       !- Heating Maximum Air Flow Fraction
  No,                                     !- Account for Dedicated Outdoor Air System
  NeutralSupplyAir,                       !- Dedicated Outdoor Air System Control Strategy
  autosize,                               !- Dedicated Outdoor Air Low Setpoint Temperature for Design {C}
  autosize,                               !- Dedicated Outdoor Air High Setpoint Temperature for Design {C}
  Sensible Load Only No Latent Load,      !- Zone Load Sizing Method
  HumidityRatioDifference,                !- Zone Latent Cooling Design Supply Air Humidity Ratio Input Method
  ,                                       !- Zone Dehumidification Design Supply Air Humidity Ratio {kgWater/kgDryAir}
  0.005,                                  !- Zone Cooling Design Supply Air Humidity Ratio Difference {kgWater/kgDryAir}
  HumidityRatioDifference,                !- Zone Latent Heating Design Supply Air Humidity Ratio Input Method
  ,                                       !- Zone Humidification Design Supply Air Humidity Ratio {kgWater/kgDryAir}
  0.005,                                  !- Zone Humidification Design Supply Air Humidity Ratio Difference {kgWater/kgDryAir}
  ,                                       !- Zone Humidistat Dehumidification Set Point Schedule Name
  ,                                       !- Zone Humidistat Humidification Set Point Schedule Name
  ,                                       !- Design Zone Air Distribution Effectiveness in Cooling Mode
  ,                                       !- Design Zone Air Distribution Effectiveness in Heating Mode
  ,                                       !- Design Zone Secondary Recirculation Fraction {dimensionless}
  ,                                       !- Design Minimum Zone Ventilation Efficiency {dimensionless}
  Coincident;                             !- Sizing Option

OS:ZoneHVAC:EquipmentList,
  {188a4395-f6d7-44be-af70-15a8dab13d4b}, !- Handle
  Zone HVAC Equipment List 2,             !- Name
  {ac9437b4-b972-4d6d-ad2c-9ba917ba5a10}; !- Thermal Zone

OS:AdditionalProperties,
  {55ade756-c6ed-4c80-99b5-671942d2e09a}, !- Handle
  {ac9437b4-b972-4d6d-ad2c-9ba917ba5a10}, !- Object Name
  ObjectType,                             !- Feature Name 1
  String,                                 !- Feature Data Type 1
  attic - vented;                         !- Feature Value 1

OS:Space,
  {9f4f6274-1188-4480-b1a9-2ecd6873342f}, !- Handle
  attic - vented 1,                       !- Name
  ,                                       !- Space Type Name
  ,                                       !- Default Construction Set Name
  ,                                       !- Default Schedule Set Name
  ,                                       !- Direction of Relative North {deg}
  ,                                       !- X Origin {m}
  ,                                       !- Y Origin {m}
  ,                                       !- Z Origin {m}
  ,                                       !- Building Story Name
  {ac9437b4-b972-4d6d-ad2c-9ba917ba5a10}, !- Thermal Zone Name
  ,                                       !- Part of Total Floor Area
  ,                                       !- Design Specification Outdoor Air Object Name
  ,                                       !- Building Unit Name
  356.389957095237;                       !- Volume {m3}

OS:Material,