
OS:Version,
  {f132abdb-80fc-4a34-b436-932ce5610e0d}, !- Handle
  3.10.0;                                 !- Version Identifier

OS:SimulationControl,
  {95fe392d-4b6d-4e0b-ac83-5735e5453df6}, !- Handle
  ,                                       !- Do Zone Sizing Calculation
  ,                                       !- Do System Sizing Calculation
  ,                                       !- Do Plant Sizing Calculation
  No;                                     !- Run Simulation for Sizing Periods

OS:Timestep,
  {8d6435d8-a2bd-45ff-a073-a12b886ffaeb}, !- Handle
  1;                                      !- Number of Timesteps per Hour

OS:ShadowCalculation,
  {1f4b7b15-39cf-4985-be13-29d183ff320e}, !- Handle
  PolygonClipping,                        !- Shading Calculation Method
  ,                                       !- Shading Calculation Update Frequency Method
  20,                                     !- Shading Calculation Update Frequency
  200,                                    !- Maximum Figures in Shadow Overlap Calculations
  ,                                       !- Polygon Clipping Algorithm
  512,                                    !- Pixel Counting Resolution
  ,                                       !- Sky Diffuse Modeling Algorithm
  No,                                     !- Output External Shading Calculation Results
  No,                                     !- Disable Self-Shading Within Shading Zone Groups
  No;                                     !- Disable Self-Shading From Shading Zone Groups to Other Zones

OS:SurfaceConvectionAlgorithm:Outside,
  {1b2ed707-79fc-4f95-b5e2-c8a4e6cd39c9}, !- Handle
  DOE-2;                                  !- Algorithm

OS:SurfaceConvectionAlgorithm:Inside,
  {bebd2e2a-f98e-4fb6-b79f-03e9e9696b95}, !- Handle
  TARP;                                   !- Algorithm

OS:ZoneCapacitanceMultiplier:ResearchSpecial,
  {49d97cf0-5aa6-46fa-b209-03930d399f31}, !- Handle
  7,                                      !- Temperature Capacity Multiplier
  15,                                     !- Humidity Capacity Multiplier
  ;                                       !- Carbon Dioxide Capacity Multiplier

OS:ConvergenceLimits,
  {6230520d-a859-4d38-b47e-b156ce90ea5c}, !- Handle
  0;                                      !- Minimum System Timestep {minutes}

OS:RunPeriod,
  {345f4852-9d85-44a2-aca4-d7026e7e9341}, !- Handle
  Run Period 1,                           !- Name
  1,                                      !- Begin Month
  1,                                      !- Begin Day of Month
  12,                                     !- End Month
  31,                                     !- End Day of Month
  ,                                       !- Use Weather File Holidays and Special Days
  ,                                       !- Use Weather File Daylight Saving Period
  ,                                       !- Apply Weekend Holiday Rule
  ,                                       !- Use Weather File Rain Indicators
  ,                                       !- Use Weather File Snow Indicators
  ;                                       !- Number of Times Runperiod to be Repeated

OS:PerformancePrecisionTradeoffs,
  {66a389ca-93a3-44ce-a37b-0aada475e44d}, !- Handle
  ,                                       !- Use Coil Direct Solutions
  CarrollMRT;                             !- Zone Radiant Exchange Algorithm

OS:WeatherFile,
  {467ba9fb-c712-4366-8a44-b8b01174b2ca}, !- Handle
  Buffalo Niagara Intl Ap,                !- City
  NY,                                     !- State Province Region
  USA,                                    !- Country
  TMY3,                                   !- Data Source
  725280,                                 !- WMO Number
  42.93,                                  !- Latitude {deg}
  -78.73,                                 !- Longitude {deg}
  -5,                                     !- Time Zone {hr}
  215,                                    !- Elevation {m}
  /Users/nmoore/github/urbanopt-example-geojson-project/example_project/weather/USA_NY_Buffalo-Greater.Buffalo.Intl.AP.725280_TMY3.epw, !- Url
  6B50E0FF,                               !- Checksum
  ,                                       !- Start Date Actual Year
  Sunday;                                 !- Start Day of Week

OS:YearDescription,
  {5157d502-a990-4d7c-8164-21d1ddec1598}, !- Handle
  2007,                                   !- Calendar Year
  ,                                       !- Day of Week for Start Day
  ;                                       !- Is Leap Year

OS:Site,
  {be730be4-611e-4ebe-a7ed-114fdbc3f288}, !- Handle
  Buffalo Niagara Intl Ap_NY,             !- Name
  42.93,                                  !- Latitude {deg}
  -78.73,                                 !- Longitude {deg}
  -5,                                     !- Time Zone {hr}
  215,                                    !- Elevation {m}
  Suburbs,                                !- Terrain
  Yes;                                    !- Keep Site Location Information

OS:RunPeriodControl:DaylightSavingTime,
  {3b55e219-7df5-4041-a071-d24951502259}, !- Handle
  Mar 12,                                 !- Start Date
  Nov 5;                                  !- End Date

OS:Site:GroundTemperature:Shallow,
  {57fc5d3a-e26e-47e3-a6a5-dadf628f0432}, !- Handle
  4.30207395723828,                       !- January Surface Ground Temperature {C}
  2.29327249652502,                       !- February Surface Ground Temperature {C}
  2.13240047156047,                       !- March Surface Ground Temperature {C}
  3.08567940719286,                       !- April Surface Ground Temperature {C}
  6.91256312497526,                       !- May Surface Ground Temperature {C}
  10.7216195949507,                       !- June Surface Ground Temperature {C}
  14.0238679822574,                       !- July Surface Ground Temperature {C}
  16.1157611184724,                       !- August Surface Ground Temperature {C}
  16.2934789303462,                       !- September Surface Ground Temperature {C}
  14.5920754632847,                       !- October Surface Ground Temperature {C}
  11.374036348653,                        !- November Surface Ground Temperature {C}
  7.68182621661674;                       !- December Surface Ground Temperature {C}

OS:ThermalZone,
  {846a40b7-1465-451f-9796-23d69e250ada}, !- Handle
  conditioned space,                      !- Name
  1,                                      !- Multiplier
  ,                                       !- Ceiling Height {m}
  692.06373070848,                        !- Volume {m3}
  ,                                       !- Floor Area {m2}
  ,                                       !- Zone Inside Convection Algorithm
  ,                                       !- Zone Outside Convection Algorithm
  ,                                       !- Zone Conditioning Equipment List Name
  {021fadca-28a3-4c1e-9443-007fffed938a}, !- Zone Air Inlet Port List
  {dea2ee0a-6574-4aaa-af7f-e14d1700e455}, !- Zone Air Exhaust Port List
  {59a3aae7-bf1f-407a-9674-4b8b25501628}, !- Zone Air Node Name
  {1da938a7-d966-4389-b921-04e276bf651b}, !- Zone Return Air Port List
  ,                                       !- Primary Daylighting Control Name
  ,                                       !- Fraction of Zone Controlled by Primary Daylighting Control
  ,                                       !- Secondary Daylighting Control Name
  ,                                       !- Fraction of Zone Controlled by Secondary Daylighting Control
  ,                                       !- Illuminance Map Name
  ,                                       !- Group Rendering Name
  {83d1307d-adc7-4343-8768-4c5558cb31bc}, !- Thermostat Name
  No;                                     !- Use Ideal Air Loads

OS:Node,
  {7f48ee64-d9b5-48a7-9601-1b6af12fb3ee}, !- Handle
  Node 1,                                 !- Name
  {59a3aae7-bf1f-407a-9674-4b8b25501628}, !- Inlet Port
  ;                                       !- Outlet Port

OS:Connection,
  {59a3aae7-bf1f-407a-9674-4b8b25501628}, !- Handle
  {846a40b7-1465-451f-9796-23d69e250ada}, !- Source Object
  11,                                     !- Outlet Port
  {7f48ee64-d9b5-48a7-9601-1b6af12fb3ee}, !- Target Object
  2;                                      !- Inlet Port

OS:PortList,
  {021fadca-28a3-4c1e-9443-007fffed938a}, !- Handle
  {846a40b7-1465-451f-9796-23d69e250ada}, !- HVAC Component
  {c911fb98-beb9-4e50-8679-49b318dee3d5}; !- Port 1

OS:PortList,
  {dea2ee0a-6574-4aaa-af7f-e14d1700e455}, !- Handle
  {846a40b7-1465-451f-9796-23d69e250ada}; !- HVAC Component

OS:PortList,
  {1da938a7-d966-4389-b921-04e276bf651b}, !- Handle
  {846a40b7-1465-451f-9796-23d69e250ada}, !- HVAC Component
  {fa34be33-546c-4fe8-80e0-f239f63049fc}; !- Port 1

OS:Sizing:Zone,
  {eb780095-5641-4c2d-8d79-21f6b65aa9e9}, !- Handle
  {846a40b7-1465-451f-9796-23d69e250ada}, !- Zone or ZoneList Name
  SupplyAirTemperature,                   !- Zone Cooling Design Supply Air Temperature Input Method
  14,                                     !- Zone Cooling Design Supply Air Temperature {C}
  11.11,                                  !- Zone Cooling Design Supply Air Temperature Difference {deltaC}
  SupplyAirTemperature,                   !- Zone Heating Design Supply Air Temperature Input Method
  40,                                     !- Zone Heating Design Supply Air Temperature {C}
  11.11,                                  !- Zone Heating Design Supply Air Temperature Difference {deltaC}
  0.0085,                                 !- Zone Cooling Design Supply Air Humidity Ratio {kg-H2O/kg-air}
  0.008,                                  !- Zone Heating Design Supply Air Humidity Ratio {kg-H2O/kg-air}
  ,                                       !- Zone Heating Sizing Factor
  ,                                       !- Zone Cooling Sizing Factor
  DesignDay,                              !- Cooling Design Air Flow Method
  ,                                       !- Cooling Design Air Flow Rate {m3/s}
  ,                                       !- Cooling Minimum Air Flow per Zone Floor Area {m3/s-m2}
  ,                                       !- Cooling Minimum Air Flow {m3/s}
  ,                                       !- Cooling Minimum Air Flow Fraction
  DesignDay,                              !- Heating Design Air Flow Method
  ,                                       !- Heating Design Air Flow Rate {m3/s}
  ,                                       !- Heating Maximum Air Flow per Zone Floor Area {m3/s-m2}
  ,                                       !- Heating Maximum Air Flow {m3/s}
  ,                                       !- Heating Maximum Air Flow Fraction
  No,                                     !- Account for Dedicated Outdoor Air System
  NeutralSupplyAir,                       !- Dedicated Outdoor Air System Control Strategy
  autosize,                               !- Dedicated Outdoor Air Low Setpoint Temperature for Design {C}
  autosize,                               !- Dedicated Outdoor Air High Setpoint Temperature for Design {C}
  Sensible Load Only No Latent Load,      !- Zone Load Sizing Method
  HumidityRatioDifference,                !- Zone Latent Cooling Design Supply Air Humidity Ratio Input Method
  ,                                       !- Zone Dehumidification Design Supply Air Humidity Ratio {kgWater/kgDryAir}
  0.005,                                  !- Zone Cooling Design Supply Air Humidity Ratio Difference {kgWater/kgDryAir}
  HumidityRatioDifference,                !- Zone Latent Heating Design Supply Air Humidity Ratio Input Method
  ,                                       !- Zone Humidification Design Supply Air Humidity Ratio {kgWater/kgDryAir}
  0.005,                                  !- Zone Humidification Design Supply Air Humidity Ratio Difference {kgWater/kgDryAir}
  ,                                       !- Zone Humidistat Dehumidification Set Point Schedule Name
  ,                                       !- Zone Humidistat Humidification Set Point Schedule Name
  ,                                       !- Design Zone Air Distribution Effectiveness in Cooling Mode
  ,                                       !- Design Zone Air Distribution Effectiveness in Heating Mode
  ,                                       !- Design Zone Secondary Recirculation Fraction {dimensionless}
  ,                                       !- Design Minimum Zone Ventilation Efficiency {dimensionless}
  Coincident;                             !- Sizing Option

OS:ZoneHVAC:EquipmentList,
  {022f0bb2-ad7a-46fa-8f26-be037eed471d}, !- Handle
  Zone HVAC Equipment List 1,             !- Name
  {846a40b7-1465-451f-9796-23d69e250ada}, !- Thermal Zone
  ,                                       !- Load Distribution Scheme
  {89970ab9-4ba1-4cdc-b60c-cefbb513f09d}, !- Zone Equipment 1
  1,                                      !- Zone Equipment Cooling Sequence 1
  1,                                      !- Zone Equipment Heating or No-Load Sequence 1
  {e8f33299-0306-4db7-bc5b-d5e9719752e9}, !- Zone Equipment Sequential Cooling Fraction Schedule Name 1
  {76fe7e4d-3528-4b06-b4c8-b635ff0c6997}, !- Zone Equipment Sequential Heating Fraction Schedule Name 1
  {77d5ac57-a77e-4b53-aa13-21115b87117d}, !- Zone Equipment 2
  2,                                      !- Zone Equipment Cooling Sequence 2
  2,                                      !- Zone Equipment Heating or No-Load Sequence 2
  {e8b9dd0e-5571-487d-ba4a-bdc154e6b511}, !- Zone Equipment Sequential Cooling Fraction Schedule Name 2
  {c9cecc49-88bf-4382-a9d2-8a876ca7ec77}; !- Zone Equipment Sequential Heating Fraction Schedule Name 2

OS:AdditionalProperties,
  {eba71e9e-21cc-476d-8103-84afdfa1f2dd}, !- Handle
  {846a40b7-1465-451f-9796-23d69e250ada}, !- Object Name
  ObjectType,                             !- Feature Name 1
  String,                                 !- Feature Data Type 1
  conditioned space;                      !- Feature Value 1

OS:Space,
  {1f904be2-946b-4136-b92a-256e90d4e382}, !- Handle
  conditioned space 1,                    !- Name
  ,                                       !- Space Type Name
  ,                                       !- Default Construction Set Name
  ,                                       !- Default Schedule Set Name
  ,                                       !- Direction of Relative North {deg}
  ,                                       !- X Origin {m}
  ,                                       !- Y Origin {m}
  ,                                       !- Z Origin {m}
  ,                                       !- Building Story Name
  {846a40b7-1465-451f-9796-23d69e250ada}, !- Thermal Zone Name
  ,                                       !- Part of Total Floor Area
  ,                                       !- Design Specification Outdoor Air Object Name
  ,                                       !- Building Unit Name
  692.06373070848;                        !- Volume {m3}

OS:Schedule:Ruleset,
  {0f88527f-f17d-4c7d-9705-bc386de845b6}, !- Handle
  heating setpoint,                       !- Name
  {5e69d508-86b6-465e-a077-49d84e34d9a5}, !- Schedule Type Limits Name
  {56b988d5-270e-4293-938c-4f63c5c72f81}; !- Default Day Schedule Name

OS:Schedule:Day,
  {56b988d5-270e-4293-938c-4f63c5c72f81}, !- Handle
  heating setpoint default day,           !- Name
  {5e69d508-86b6-465e-a077-49d84e34d9a5}, !- Schedule Type Limits Name
  ,                                       !- Interpolate to Timestep
  24,                                     !- Hour 1
  0,                                      !- Minute 1
  0;                                      !- Value Until Time 1

OS:Schedule:Rule,
  {600fc542-0bc7-4f70-8841-693b9ec0f3b8}, !- Handle
  heating setpoint allday rule,           !- Name
  {0f88527f-f17d-4c7d-9705-bc386de845b6}, !- Schedule Ruleset Name
  0,                                      !- Rule Order
  {9f3b1bf9-7c96-44a6-867c-ea171315844f}, !- Day Schedule Name
  Yes,                                    !- Apply Sunday
  Yes,                                    !- Apply Monday
  Yes,                                    !- Apply Tuesday
  Yes,                                    !- Apply Wednesday
  Yes,                                    !- Apply Thursday
  Yes,                                    !- Apply Friday
  Yes,                                    !- Apply Saturday
  DateRange,                              !- Date Specification Type
  1,                                      !- Start Month
  1,                                      !- Start Day
  12,                                     !- End Month
  31;                                     !- End Day

OS:Schedule:Day,
  {9f3b1bf9-7c96-44a6-867c-ea171315844f}, !- Handle
  heating setpoint day,                   !- Name
  {5e69d508-86b6-465e-a077-49d84e34d9a5}, !- Schedule Type Limits Name
  ,                                       !- Interpolate to Timestep
  24,                                     !- Hour 1
  0,                                      !- Minute 1
  20;                                     !- Value Until Time 1

OS:Schedule:Ruleset,
  {6580ebad-97d3-4fbc-a1a1-e90c83190ce3}, !- Handle
  cooling setpoint,                       !- Name
  {5e69d508-86b6-465e-a077-49d84e34d9a5}, !- Schedule Type Limits Name
  {19539cd9-f0aa-4e72-9c2c-e6b09c11a4f5}; !- Default Day Schedule Name

OS:Schedule:Day,
  {19539cd9-f0aa-4e72-9c2c-e6b09c11a4f5}, !- Handle
  cooling setpoint default day,           !- Name
  {5e69d508-86b6-465e-a077-49d84e34d9a5}, !- Schedule Type Limits Name
  ,                                       !- Interpolate to Timestep
  24,                                     !- Hour 1
  0,                                      !- Minute 1
  0;                                      !- Value Until Time 1

OS:Schedule:Rule,
  {2d819aed-b3b6-4c6a-abaf-afff69420995}, !- Handle
  cooling setpoint allday rule,           !- Name
  {6580ebad-97d3-4fbc-a1a1-e90c83190ce3}, !- Schedule Ruleset Name
  0,                                      !- Rule Order
  {be9ac683-eef0-4ab3-a85a-ee1f473fe617}, !- Day Schedule Name
  Yes,                                    !- Apply Sunday
  Yes,                                    !- Apply Monday
  Yes,                                    !- Apply Tuesday
  Yes,                                    !- Apply Wednesday
  Yes,                                    !- Apply Thursday
  Yes,                                    !- Apply Friday
  Yes,                                    !- Apply Saturday
  DateRange,                              !- Date Specification Type
  1,                                      !- Start Month
  1,                                      !- Start Day
  12,                                     !- End Month
  31;                                     !- End Day

OS:Schedule:Day,
  {be9ac683-eef0-4ab3-a85a-ee1f473fe617}, !- Handle
  cooling setpoint day,                   !- Name
  {5e69d508-86b6-465e-a077-49d84e34d9a5}, !- Schedule Type Limits Name
  ,                                       !- Interpolate to Timestep
  24,                                     !- Hour 1
  0,                                      !- Minute 1
  25.5555555555556;                       !- Value Until Time 1

OS:ThermostatSetpoint:DualSetpoint,
  {83d1307d-adc7-4343-8768-4c5558cb31bc}, !- Handle
  conditioned space temperature setpoint, !- Name
  {0f88527f-f17d-4c7d-9705-bc386de845b6}, !- Heating Setpoint Temperature Schedule Name
  {6580ebad-97d3-4fbc-a1a1-e90c83190ce3}, !- Cooling Setpoint Temperature Schedule Name
  0;                                      !- Temperature Difference Between Cutout And Setpoint {deltaC}

OS:ScheduleTypeLimits,
  {5e69d508-86b6-465e-a077-49d84e34d9a5}, !- Handle
  Temperature,                            !- Name
  ,                                       !- Lower Limit Value
  ,                                       !- Upper Limit Value
  Continuous,                             !- Numeric Type
  Temperature;                            !- Unit Type

OS:Surface,
  {f725e896-ba7a-451a-bb9c-c58b2595c67f}, !- Handle
  Roof1,                                  !- Name
  RoofCeiling,                            !- Surface Type
  {1082077d-4c7e-41b7-a9e9-6cc7ef6b7390}, !- Construction Name
  {146100ab-bccf-4077-bfdb-778dc9f2aa17}, !- Space Name
  Outdoors,                               !- Outside Boundary Condition
  ,                                       !- Outside Boundary Condition Object
  SunExposed,                             !- Sun Exposure
  WindExposed,                            !- Wind Exposure
  ,                                       !- View Factor to Ground
  ,                                       !- Number of Vertices
  -26.9347048849634, 58.0557891618865, 2.4384, !- X,Y,Z Vertex 1 {m}
  -26.9347048849634, 46.7895631136661, 8.0715130241102, !- X,Y,Z Vertex 2 {m}
  -14.3386812381136, 46.7895631136661, 8.0715130241102, !- X,Y,Z Vertex 3 {m}
  -14.3386812381136, 58.0557891618865, 2.4384; !- X,Y,Z Vertex 4 {m}

OS:AdditionalProperties,
  {99fda243-13d5-4440-aa04-a88f288f9c97}, !- Handle
  {f725e896-ba7a-451a-bb9c-c58b2595c67f}, !- Object Name
  Length,                                 !- Feature Name 1
  Double,                                 !- Feature Data Type 1
  41.325536899113608,                     !- Feature Value 1
  Width,                                  !- Feature Name 2
  Double,                                 !- Feature Data Type 2
  41.325536899113601,                     !- Feature Value 2
  Azimuth,                                !- Feature Name 3
  Integer,                                !- Feature Data Type 3
  0,                                      !- Feature Value 3
  Tilt,                                   !- Feature Name 4
  Double,                                 !- Feature Data Type 4
  0.5,                                    !- Feature Value 4
  SurfaceType,                            !- Feature Name 5
  String,                                 !- Feature Data Type 5
  Roof;                                   !- Feature Value 5

OS:ThermalZone,
  {00f2ffe5-c68e-44c9-9f94-8b3432677d38}, !- Handle
  attic - vented,                         !- Name
  1,                                      !- Multiplier
  ,                                       !- Ceiling Height {m}
  356.390921899745,                       !- Volume {m3}
  ,                                       !- Floor Area {m2}
  ,                                       !- Zone Inside Convection Algorithm
  ,                                       !- Zone Outside Convection Algorithm
  ,                                       !- Zone Conditioning Equipment List Name
  {04ddeb14-f516-4a73-a14a-ce3f72ddbab1}, !- Zone Air Inlet Port List
  {a2fb9f60-2649-468c-a0fb-afe7a1c45329}, !- Zone Air Exhaust Port List
  {60b202fd-748e-4528-854a-1400e2dda2d8}, !- Zone Air Node Name
  {891aad5b-3468-4b01-92cd-30cb956670d9}, !- Zone Return Air Port List
  ,                                       !- Primary Daylighting Control Name
  ,                                       !- Fraction of Zone Controlled by Primary Daylighting Control
  ,                                       !- Secondary Daylighting Control Name
  ,                                       !- Fraction of Zone Controlled by Secondary Daylighting Control
  ,                                       !- Illuminance Map Name
  ,                                       !- Group Rendering Name
  ,                                       !- Thermostat Name
  No;                                     !- Use Ideal Air Loads

OS:Node,
  {798bb65e-1040-4b29-8da3-9dfd2bf097d1}, !- Handle
  Node 2,                                 !- Name
  {60b202fd-748e-4528-854a-1400e2dda2d8}, !- Inlet Port
  ;                                       !- Outlet Port

OS:Connection,
  {60b202fd-748e-4528-854a-1400e2dda2d8}, !- Handle
  {00f2ffe5-c68e-44c9-9f94-8b3432677d38}, !- Source Object
  11,                                     !- Outlet Port
  {798bb65e-1040-4b29-8da3-9dfd2bf097d1}, !- Target Object
  2;                                      !- Inlet Port

OS:PortList,
  {04ddeb14-f516-4a73-a14a-ce3f72ddbab1}, !- Handle
  {00f2ffe5-c68e-44c9-9f94-8b3432677d38}; !- HVAC Component

OS:PortList,
  {a2fb9f60-2649-468c-a0fb-afe7a1c45329}, !- Handle
  {00f2ffe5-c68e-44c9-9f94-8b3432677d38}; !- HVAC Component

OS:PortList,
  {891aad5b-3468-4b01-92cd-30cb956670d9}, !- Handle
  {00f2ffe5-c68e-44c9-9f94-8b3432677d38}; !- HVAC Component

OS:Sizing:Zone,
  {8e4f0a54-a471-4e94-8527-fc0fb2547250}, !- Handle
  {00f2ffe5-c68e-44c9-9f94-8b3432677d38}, !- Zone or ZoneList Name
  SupplyAirTemperature,                   !- Zone Cooling Design Supply Air Temperature Input Method
  14,                                     !- Zone Cooling Design Supply Air Temperature {C}
  11.11,                                  !- Zone Cooling Design Supply Air Temperature Difference {deltaC}
  SupplyAirTemperature,                   !- Zone Heating Design Supply Air Temperature Input Method
  40,                                     !- Zone Heating Design Supply Air Temperature {C}
  11.11,                                  !- Zone Heating Design Supply Air Temperature Difference {deltaC}
  0.0085,                                 !- Zone Cooling Design Supply Air Humidity Ratio {kg-H2O/kg-air}
  0.008,                                  !- Zone Heating Design Supply Air Humidity Ratio {kg-H2O/kg-air}
  ,                                       !- Zone Heating Sizing Factor
  ,                                       !- Zone Cooling Sizing Factor
  DesignDay,                              !- Cooling Design Air Flow Method
  ,                                       !- Cooling Design Air Flow Rate {m3/s}
  ,                                       !- Cooling Minimum Air Flow per Zone Floor Area {m3/s-m2}
  ,                                       !- Cooling Minimum Air Flow {m3/s}
  ,                                       !- Cooling Minimum Air Flow Fraction
  DesignDay,                              !- Heating Design Air Flow Method
  ,                                       !- Heating Design Air Flow Rate {m3/s}
  ,                                       !- Heating Maximum Air Flow per Zone Floor Area {m3/s-m2}
  ,                                       !- Heating Maximum Air Flow {m3/s}
  ,                                       !- Heating Maximum Air Flow Fraction
  No,                                     !- Account for Dedicated Outdoor Air System
  NeutralSupplyAir,                       !- Dedicated Outdoor Air System Control Strategy
  autosize,                               !- Dedicated Outdoor Air Low Setpoint Temperature for Design {C}
  autosize,                               !- Dedicated Outdoor Air High Setpoint Temperature for Design {C}
  Sensible Load Only No Latent Load,      !- Zone Load Sizing Method
  HumidityRatioDifference,                !- Zone Latent Cooling Design Supply Air Humidity Ratio Input Method
  ,                                       !- Zone Dehumidification Design Supply Air Humidity Ratio {kgWater/kgDryAir}
  0.005,                                  !- Zone Cooling Design Supply Air Humidity Ratio Difference {kgWater/kgDryAir}
  HumidityRatioDifference,                !- Zone Latent Heating Design Supply Air Humidity Ratio Input Method
  ,                                       !- Zone Humidification Design Supply Air Humidity Ratio {kgWater/kgDryAir}
  0.005,                                  !- Zone Humidification Design Supply Air Humidity Ratio Difference {kgWater/kgDryAir}
  ,                                       !- Zone Humidistat Dehumidification Set Point Schedule Name
  ,                                       !- Zone Humidistat Humidification Set Point Schedule Name
  ,                                       !- Design Zone Air Distribution Effectiveness in Cooling Mode
  ,                                       !- Design Zone Air Distribution Effectiveness in Heating Mode
  ,                                       !- Design Zone Secondary Recirculation Fraction {dimensionless}
  ,                                       !- Design Minimum Zone Ventilation Efficiency {dimensionless}
  Coincident;                             !- Sizing Option

OS:ZoneHVAC:EquipmentList,
  {98d37a3c-a484-4a77-bfd2-09b2da652422}, !- Handle
  Zone HVAC Equipment List 2,             !- Name
  {00f2ffe5-c68e-44c9-9f94-8b3432677d38}; !- Thermal Zone

OS:AdditionalProperties,
  {71236d09-fb13-49e0-a0e6-4f5eb4c760ff}, !- Handle
  {00f2ffe5-c68e-44c9-9f94-8b3432677d38}, !- Object Name
  ObjectType,                             !- Feature Name 1
  String,                                 !- Feature Data Type 1
  attic - vented;                         !- Feature Value 1

OS:Space,
  {146100ab-bccf-4077-bfdb-778dc9f2aa17}, !- Handle
  attic - vented 1,                       !- Name
  ,                                       !- Space Type Name
  ,                                       !- Default Construction Set Name
  ,                                       !- Default Schedule Set Name
  ,                                       !- Direction of Relative North {deg}
  ,                                       !- X Origin {m}
  ,                                       !- Y Origin {m}
  ,                                       !- Z Origin {m}
  ,                                       !- Building Story Name
  {00f2ffe5-c68e-44c9-9f94-8b3432677d38}, !- Thermal Zone Name
  ,                                       !- Part of Total Floor Area
  ,                                       !- Design Specification Outdoor Air Object Name
  ,                                       !- Building Unit Name
  356.390921899745;                       !- Volume {m3}

OS:Material,
  {63d6a07d-e9cb-4050-b120-cb8945598959}, !- Handle
  asphalt or fiberglass shingles,         !- Name