
OS:Version,
  {e6d91f6e-e817-4a97-91c8-d6580455163d}, !- Handle
  3.9.0;                                  !- Version Identifier

OS:SimulationControl,
  {a08fb1d9-bec0-4517-9398-a30a7b5fe062}, !- Handle
  ,                                       !- Do Zone Sizing Calculation
  ,                                       !- Do System Sizing Calculation
  ,                                       !- Do Plant Sizing Calculation
  No;                                     !- Run Simulation for Sizing Periods

OS:Timestep,
  {abc6c310-2c60-44f2-a232-c4862ca73070}, !- Handle
  1;                                      !- Number of Timesteps per Hour

OS:ShadowCalculation,
  {574036de-8803-42cf-931d-641ce173ccaa}, !- Handle
  PolygonClipping,                        !- Shading Calculation Method
  ,                                       !- Shading Calculation Update Frequency Method
  20,                                     !- Shading Calculation Update Frequency
  200,                                    !- Maximum Figures in Shadow Overlap Calculations
  ,                                       !- Polygon Clipping Algorithm
  512,                                    !- Pixel Counting Resolution
  ,                                       !- Sky Diffuse Modeling Algorithm
  No,                                     !- Output External Shading Calculation Results
  No,                                     !- Disable Self-Shading Within Shading Zone Groups
  No;                                     !- Disable Self-Shading From Shading Zone Groups to Other Zones

OS:SurfaceConvectionAlgorithm:Outside,
  {9536bd75-1dde-4fcb-bbf1-70e931527d64}, !- Handle
  DOE-2;                                  !- Algorithm

OS:SurfaceConvectionAlgorithm:Inside,
  {8c98cb58-434a-4b8d-8a6c-cd3771ed2c68}, !- Handle
  TARP;                                   !- Algorithm

OS:ZoneCapacitanceMultiplier:ResearchSpecial,
  {1e9db0e2-e34c-437e-b5be-1c4f6db0d498}, !- Handle
  7,                                      !- Temperature Capacity Multiplier
  15,                                     !- Humidity Capacity Multiplier
  ;                                       !- Carbon Dioxide Capacity Multiplier

OS:ConvergenceLimits,
  {2a122db9-a42e-4224-b6f7-36ffdfcb77fa}, !- Handle
  0;                                      !- Minimum System Timestep {minutes}

OS:RunPeriod,
  {65e77f1b-395e-4513-9496-29375ae54f1a}, !- Handle
  Run Period 1,                           !- Name
  1,                                      !- Begin Month
  1,                                      !- Begin Day of Month
  12,                                     !- End Month
  31,                                     !- End Day of Month
  ,                                       !- Use Weather File Holidays and Special Days
  ,                                       !- Use Weather File Daylight Saving Period
  ,                                       !- Apply Weekend Holiday Rule
  ,                                       !- Use Weather File Rain Indicators
  ,                                       !- Use Weather File Snow Indicators
  ;                                       !- Number of Times Runperiod to be Repeated

OS:PerformancePrecisionTradeoffs,
  {17d8c099-15ee-44e5-a4e6-2298c8f09cdb}, !- Handle
  ,                                       !- Use Coil Direct Solutions
  CarrollMRT;                             !- Zone Radiant Exchange Algorithm

OS:WeatherFile,
  {8e898a1f-4bc6-4433-b8a6-a53a88c2676a}, !- Handle
  Buffalo Niagara Intl Ap,                !- City
  NY,                                     !- State Province Region
  USA,                                    !- Country
  TMY3,                                   !- Data Source
  725280,                                 !- WMO Number
  42.93,                                  !- Latitude {deg}
  -78.73,                                 !- Longitude {deg}
  -5,                                     !- Time Zone {hr}
  215,                                    !- Elevation {m}
  /Users/nmoore/github/urbanopt-example-geojson-project/example_project/weather/USA_NY_Buffalo-Greater.Buffalo.Intl.AP.725280_TMY3.epw, !- Url
  6B50E0FF,                               !- Checksum
  ,                                       !- Start Date Actual Year
  Sunday;                                 !- Start Day of Week

OS:YearDescription,
  {f02b85ae-8265-4637-83d7-a7cf1ae55566}, !- Handle
  2007,                                   !- Calendar Year
  ,                                       !- Day of Week for Start Day
  ;                                       !- Is Leap Year

OS:Site,
  {b1641caf-f42f-4426-8490-21e2abc7cf6c}, !- Handle
  Buffalo Niagara Intl Ap_NY,             !- Name
  42.93,                                  !- Latitude {deg}
  -78.73,                                 !- Longitude {deg}
  -5,                                     !- Time Zone {hr}
  215,                                    !- Elevation {m}
  Suburbs,                                !- Terrain
  Yes;                                    !- Keep Site Location Information

OS:RunPeriodControl:DaylightSavingTime,
  {1f267335-dbbf-49e1-aa51-866ba3847f8b}, !- Handle
  Mar 12,                                 !- Start Date
  Nov 5;                                  !- End Date

OS:Site:GroundTemperature:Shallow,
  {42ff326e-f815-403e-9efd-b3a600a9fd24}, !- Handle
  4.30207395723828,                       !- January Surface Ground Temperature {C}
  2.29327249652502,                       !- February Surface Ground Temperature {C}
  2.13240047156047,                       !- March Surface Ground Temperature {C}
  3.08567940719286,                       !- April Surface Ground Temperature {C}
  6.91256312497526,                       !- May Surface Ground Temperature {C}
  10.7216195949507,                       !- June Surface Ground Temperature {C}
  14.0238679822574,                       !- July Surface Ground Temperature {C}
  16.1157611184724,                       !- August Surface Ground Temperature {C}
  16.2934789303462,                       !- September Surface Ground Temperature {C}
  14.5920754632847,                       !- October Surface Ground Temperature {C}
  11.374036348653,                        !- November Surface Ground Temperature {C}
  7.68182621661674;                       !- December Surface Ground Temperature {C}

OS:ThermalZone,
  {9d0b2bf5-60f5-4a60-b3d3-1533658245d3}, !- Handle
  conditioned space,                      !- Name
  1,                                      !- Multiplier
  ,                                       !- Ceiling Height {m}
  692.06373070848,                        !- Volume {m3}
  ,                                       !- Floor Area {m2}
  ,                                       !- Zone Inside Convection Algorithm
  ,                                       !- Zone Outside Convection Algorithm
  ,                                       !- Zone Conditioning Equipment List Name
  {753690c6-ee92-4b4e-9abb-da5b6ea10c4c}, !- Zone Air Inlet Port List
  {44723496-55da-4e35-a1f9-b7e85f2078f3}, !- Zone Air Exhaust Port List
  {45e60742-3934-4f37-8564-dbf97cb85977}, !- Zone Air Node Name
  {1d3a1f8a-3aea-495f-be59-ebb7f50c8a4e}, !- Zone Return Air Port List
  ,                                       !- Primary Daylighting Control Name
  ,                                       !- Fraction of Zone Controlled by Primary Daylighting Control
  ,                                       !- Secondary Daylighting Control Name
  ,                                       !- Fraction of Zone Controlled by Secondary Daylighting Control
  ,                                       !- Illuminance Map Name
  ,                                       !- Group Rendering Name
  {d9aee16a-12d7-43f8-8cf2-e71221049cbf}, !- Thermostat Name
  No;                                     !- Use Ideal Air Loads

OS:Node,
  {dd09f1a9-5e67-4cf3-a570-cf80959eca04}, !- Handle
  Node 1,                                 !- Name
  {45e60742-3934-4f37-8564-dbf97cb85977}, !- Inlet Port
  ;                                       !- Outlet Port

OS:Connection,
  {45e60742-3934-4f37-8564-dbf97cb85977}, !- Handle
  {9d0b2bf5-60f5-4a60-b3d3-1533658245d3}, !- Source Object
  11,                                     !- Outlet Port
  {dd09f1a9-5e67-4cf3-a570-cf80959eca04}, !- Target Object
  2;                                      !- Inlet Port

OS:PortList,
  {753690c6-ee92-4b4e-9abb-da5b6ea10c4c}, !- Handle
  {9d0b2bf5-60f5-4a60-b3d3-1533658245d3}, !- HVAC Component
  {201035af-8452-4c03-bb00-a61641e73f58}; !- Port 1

OS:PortList,
  {44723496-55da-4e35-a1f9-b7e85f2078f3}, !- Handle
  {9d0b2bf5-60f5-4a60-b3d3-1533658245d3}; !- HVAC Component

OS:PortList,
  {1d3a1f8a-3aea-495f-be59-ebb7f50c8a4e}, !- Handle
  {9d0b2bf5-60f5-4a60-b3d3-1533658245d3}, !- HVAC Component
  {8569aec5-6acc-4100-9adc-e67acf5f757f}; !- Port 1

OS:Sizing:Zone,
  {01f74bb9-231e-4765-888e-c94f8dfc4594}, !- Handle
  {9d0b2bf5-60f5-4a60-b3d3-1533658245d3}, !- Zone or ZoneList Name
  SupplyAirTemperature,                   !- Zone Cooling Design Supply Air Temperature Input Method
  14,                                     !- Zone Cooling Design Supply Air Temperature {C}
  11.11,                                  !- Zone Cooling Design Supply Air Temperature Difference {deltaC}
  SupplyAirTemperature,                   !- Zone Heating Design Supply Air Temperature Input Method
  40,                                     !- Zone Heating Design Supply Air Temperature {C}
  11.11,                                  !- Zone Heating Design Supply Air Temperature Difference {deltaC}
  0.0085,                                 !- Zone Cooling Design Supply Air Humidity Ratio {kg-H2O/kg-air}
  0.008,                                  !- Zone Heating Design Supply Air Humidity Ratio {kg-H2O/kg-air}
  ,                                       !- Zone Heating Sizing Factor
  ,                                       !- Zone Cooling Sizing Factor
  DesignDay,                              !- Cooling Design Air Flow Method
  ,                                       !- Cooling Design Air Flow Rate {m3/s}
  ,                                       !- Cooling Minimum Air Flow per Zone Floor Area {m3/s-m2}
  ,                                       !- Cooling Minimum Air Flow {m3/s}
  ,                                       !- Cooling Minimum Air Flow Fraction
  DesignDay,                              !- Heating Design Air Flow Method
  ,                                       !- Heating Design Air Flow Rate {m3/s}
  ,                                       !- Heating Maximum Air Flow per Zone Floor Area {m3/s-m2}
  ,                                       !- Heating Maximum Air Flow {m3/s}
  ,                                       !- Heating Maximum Air Flow Fraction
  No,                                     !- Account for Dedicated Outdoor Air System
  NeutralSupplyAir,                       !- Dedicated Outdoor Air System Control Strategy
  autosize,                               !- Dedicated Outdoor Air Low Setpoint Temperature for Design {C}
  autosize,                               !- Dedicated Outdoor Air High Setpoint Temperature for Design {C}
  Sensible Load Only No Latent Load,      !- Zone Load Sizing Method
  HumidityRatioDifference,                !- Zone Latent Cooling Design Supply Air Humidity Ratio Input Method
  ,                                       !- Zone Dehumidification Design Supply Air Humidity Ratio {kgWater/kgDryAir}
  0.005,                                  !- Zone Cooling Design Supply Air Humidity Ratio Difference {kgWater/kgDryAir}
  HumidityRatioDifference,                !- Zone Latent Heating Design Supply Air Humidity Ratio Input Method
  ,                                       !- Zone Humidification Design Supply Air Humidity Ratio {kgWater/kgDryAir}
  0.005,                                  !- Zone Humidification Design Supply Air Humidity Ratio Difference {kgWater/kgDryAir}
  ,                                       !- Zone Humidistat Dehumidification Set Point Schedule Name
  ,                                       !- Zone Humidistat Humidification Set Point Schedule Name
  ,                                       !- Design Zone Air Distribution Effectiveness in Cooling Mode
  ,                                       !- Design Zone Air Distribution Effectiveness in Heating Mode
  ,                                       !- Design Zone Secondary Recirculation Fraction {dimensionless}
  ,                                       !- Design Minimum Zone Ventilation Efficiency {dimensionless}
  Coincident;                             !- Sizing Option

OS:ZoneHVAC:EquipmentList,
  {75b0993d-6cab-43e4-976d-05c530ef774f}, !- Handle
  Zone HVAC Equipment List 1,             !- Name
  {9d0b2bf5-60f5-4a60-b3d3-1533658245d3}, !- Thermal Zone
  ,                                       !- Load Distribution Scheme
  {09e8f7c8-b118-463e-a967-f98d873fcf95}, !- Zone Equipment 1
  1,                                      !- Zone Equipment Cooling Sequence 1
  1,                                      !- Zone Equipment Heating or No-Load Sequence 1
  {281a5424-b45b-4544-96ef-64ef64415bc2}, !- Zone Equipment Sequential Cooling Fraction Schedule Name 1
  {1628fb49-061c-4a6d-92df-292fc330a69c}, !- Zone Equipment Sequential Heating Fraction Schedule Name 1
  {37159e12-9d4e-43f7-88b2-d3068f23301b}, !- Zone Equipment 2
  2,                                      !- Zone Equipment Cooling Sequence 2
  2,                                      !- Zone Equipment Heating or No-Load Sequence 2
  {98cd185f-29b0-41ed-b10c-7a0cd8b25323}, !- Zone Equipment Sequential Cooling Fraction Schedule Name 2
  {ac2d1352-5554-4fc2-a16f-f727a11ac702}; !- Zone Equipment Sequential Heating Fraction Schedule Name 2

OS:AdditionalProperties,
  {e22d4227-2c93-42b7-be45-ef5718f2e287}, !- Handle
  {9d0b2bf5-60f5-4a60-b3d3-1533658245d3}, !- Object Name
  ObjectType,                             !- Feature Name 1
  String,                                 !- Feature Data Type 1
  conditioned space;                      !- Feature Value 1

OS:Space,
  {6167ab54-2ed6-4cf5-9016-dfe40e7c24a3}, !- Handle
  conditioned space 1,                    !- Name
  ,                                       !- Space Type Name
  ,                                       !- Default Construction Set Name
  ,                                       !- Default Schedule Set Name
  ,                                       !- Direction of Relative North {deg}
  ,                                       !- X Origin {m}
  ,                                       !- Y Origin {m}
  ,                                       !- Z Origin {m}
  ,                                       !- Building Story Name
  {9d0b2bf5-60f5-4a60-b3d3-1533658245d3}, !- Thermal Zone Name
  ,                                       !- Part of Total Floor Area
  ,                                       !- Design Specification Outdoor Air Object Name
  ,                                       !- Building Unit Name
  692.06373070848;                        !- Volume {m3}

OS:Schedule:Ruleset,
  {3ffd93c0-aa9b-4228-9c5a-6913df7c050c}, !- Handle
  heating setpoint,                       !- Name
  {c99db721-0868-4c70-a650-274b1efa3084}, !- Schedule Type Limits Name
  {817719ac-7048-4b7b-b58e-b71dae89b45a}; !- Default Day Schedule Name

OS:Schedule:Day,
  {817719ac-7048-4b7b-b58e-b71dae89b45a}, !- Handle
  heating setpoint default day,           !- Name
  {c99db721-0868-4c70-a650-274b1efa3084}, !- Schedule Type Limits Name
  ,                                       !- Interpolate to Timestep
  24,                                     !- Hour 1
  0,                                      !- Minute 1
  0;                                      !- Value Until Time 1

OS:Schedule:Rule,
  {96e381d7-0eae-41c5-8f99-de2a7544fc84}, !- Handle
  heating setpoint allday rule,           !- Name
  {3ffd93c0-aa9b-4228-9c5a-6913df7c050c}, !- Schedule Ruleset Name
  0,                                      !- Rule Order
  {38ec96e3-7fee-4797-b05b-053735d089d6}, !- Day Schedule Name
  Yes,                                    !- Apply Sunday
  Yes,                                    !- Apply Monday
  Yes,                                    !- Apply Tuesday
  Yes,                                    !- Apply Wednesday
  Yes,                                    !- Apply Thursday
  Yes,                                    !- Apply Friday
  Yes,                                    !- Apply Saturday
  DateRange,                              !- Date Specification Type
  1,                                      !- Start Month
  1,                                      !- Start Day
  12,                                     !- End Month
  31;                                     !- End Day

OS:Schedule:Day,
  {38ec96e3-7fee-4797-b05b-053735d089d6}, !- Handle
  heating setpoint day,                   !- Name
  {c99db721-0868-4c70-a650-274b1efa3084}, !- Schedule Type Limits Name
  ,                                       !- Interpolate to Timestep
  24,                                     !- Hour 1
  0,                                      !- Minute 1
  20;                                     !- Value Until Time 1

OS:Schedule:Ruleset,
  {be11a768-f9a1-4c03-abb3-cb2f926201b0}, !- Handle
  cooling setpoint,                       !- Name
  {c99db721-0868-4c70-a650-274b1efa3084}, !- Schedule Type Limits Name
  {cabad1c6-c929-4d47-953a-eba0420fca28}; !- Default Day Schedule Name

OS:Schedule:Day,
  {cabad1c6-c929-4d47-953a-eba0420fca28}, !- Handle
  cooling setpoint default day,           !- Name
  {c99db721-0868-4c70-a650-274b1efa3084}, !- Schedule Type Limits Name
  ,                                       !- Interpolate to Timestep
  24,                                     !- Hour 1
  0,                                      !- Minute 1
  0;                                      !- Value Until Time 1

OS:Schedule:Rule,
  {2b672dd8-4b1e-4abf-b564-428acedc55e1}, !- Handle
  cooling setpoint allday rule,           !- Name
  {be11a768-f9a1-4c03-abb3-cb2f926201b0}, !- Schedule Ruleset Name
  0,                                      !- Rule Order
  {4100f083-c269-48da-8921-bc2d99a93a43}, !- Day Schedule Name
  Yes,                                    !- Apply Sunday
  Yes,                                    !- Apply Monday
  Yes,                                    !- Apply Tuesday
  Yes,                                    !- Apply Wednesday
  Yes,                                    !- Apply Thursday
  Yes,                                    !- Apply Friday
  Yes,                                    !- Apply Saturday
  DateRange,                              !- Date Specification Type
  1,                                      !- Start Month
  1,                                      !- Start Day
  12,                                     !- End Month
  31;                                     !- End Day

OS:Schedule:Day,
  {4100f083-c269-48da-8921-bc2d99a93a43}, !- Handle
  cooling setpoint day,                   !- Name
  {c99db721-0868-4c70-a650-274b1efa3084}, !- Schedule Type Limits Name
  ,                                       !- Interpolate to Timestep
  24,                                     !- Hour 1
  0,                                      !- Minute 1
  25.5555555555556;                       !- Value Until Time 1

OS:ThermostatSetpoint:DualSetpoint,
  {d9aee16a-12d7-43f8-8cf2-e71221049cbf}, !- Handle
  conditioned space temperature setpoint, !- Name
  {3ffd93c0-aa9b-4228-9c5a-6913df7c050c}, !- Heating Setpoint Temperature Schedule Name
  {be11a768-f9a1-4c03-abb3-cb2f926201b0}, !- Cooling Setpoint Temperature Schedule Name
  0;                                      !- Temperature Difference Between Cutout And Setpoint {deltaC}

OS:ScheduleTypeLimits,
  {c99db721-0868-4c70-a650-274b1efa3084}, !- Handle
  Temperature,                            !- Name
  ,                                       !- Lower Limit Value
  ,                                       !- Upper Limit Value
  Continuous,                             !- Numeric Type
  Temperature;                            !- Unit Type

OS:Surface,
  {21aee006-4850-4cb5-b9f2-0b0f8b2b6ca5}, !- Handle
  Roof1,                                  !- Name
  RoofCeiling,                            !- Surface Type
  {953fc5a1-e0c9-4c50-aab9-6ce1543965cf}, !- Construction Name
  {819dabac-ab27-4c68-b64a-3812fc1992b7}, !- Space Name
  Outdoors,                               !- Outside Boundary Condition
  ,                                       !- Outside Boundary Condition Object
  SunExposed,                             !- Sun Exposure
  WindExposed,                            !- Wind Exposure
  ,                                       !- View Factor to Ground
  ,                                       !- Number of Vertices
  -26.9347048849634, 58.0557891618865, 2.4384, !- X,Y,Z Vertex 1 {m}
  -26.9347048849634, 46.7895631136661, 8.0715130241102, !- X,Y,Z Vertex 2 {m}
  -14.3386812381136, 46.7895631136661, 8.0715130241102, !- X,Y,Z Vertex 3 {m}
  -14.3386812381136, 58.0557891618865, 2.4384; !- X,Y,Z Vertex 4 {m}

OS:AdditionalProperties,
  {8c3e3937-0ea3-45f7-b10e-38c1dc4b9264}, !- Handle
  {21aee006-4850-4cb5-b9f2-0b0f8b2b6ca5}, !- Object Name
  Length,                                 !- Feature Name 1
  Double,                                 !- Feature Data Type 1
  41.325536899113608,                     !- Feature Value 1
  Width,                                  !- Feature Name 2
  Double,                                 !- Feature Data Type 2
  41.325536899113601,                     !- Feature Value 2
  Azimuth,                                !- Feature Name 3
  Integer,                                !- Feature Data Type 3
  0,                                      !- Feature Value 3
  Tilt,                                   !- Feature Name 4
  Double,                                 !- Feature Data Type 4
  0.5,                                    !- Feature Value 4
  SurfaceType,                            !- Feature Name 5
  String,                                 !- Feature Data Type 5
  Roof;                                   !- Feature Value 5

OS:ThermalZone,
  {bd2ddfd2-cfa4-4d79-a65d-6f3dc4359327}, !- Handle
  attic - vented,                         !- Name
  1,                                      !- Multiplier
  ,                                       !- Ceiling Height {m}
  356.389957095237,                       !- Volume {m3}
  ,                                       !- Floor Area {m2}
  ,                                       !- Zone Inside Convection Algorithm
  ,                                       !- Zone Outside Convection Algorithm
  ,                                       !- Zone Conditioning Equipment List Name
  {3c0e660d-f419-40fb-a730-735daf34ceca}, !- Zone Air Inlet Port List
  {890698e6-3786-4e74-a0b9-9f06031900b7}, !- Zone Air Exhaust Port List
  {97424ee9-7bf9-4f5f-96ba-852ea670eae0}, !- Zone Air Node Name
  {bc5821c2-c3f5-40af-8b4c-670ff01d0282}, !- Zone Return Air Port List
  ,                                       !- Primary Daylighting Control Name
  ,                                       !- Fraction of Zone Controlled by Primary Daylighting Control
  ,                                       !- Secondary Daylighting Control Name
  ,                                       !- Fraction of Zone Controlled by Secondary Daylighting Control
  ,                                       !- Illuminance Map Name
  ,                                       !- Group Rendering Name
  ,                                       !- Thermostat Name
  No;                                     !- Use Ideal Air Loads

OS:Node,
  {778605d4-36d6-4f77-88a9-140947b95051}, !- Handle
  Node 2,                                 !- Name
  {97424ee9-7bf9-4f5f-96ba-852ea670eae0}, !- Inlet Port
  ;                                       !- Outlet Port

OS:Connection,
  {97424ee9-7bf9-4f5f-96ba-852ea670eae0}, !- Handle
  {bd2ddfd2-cfa4-4d79-a65d-6f3dc4359327}, !- Source Object
  11,                                     !- Outlet Port
  {778605d4-36d6-4f77-88a9-140947b95051}, !- Target Object
  2;                                      !- Inlet Port

OS:PortList,
  {3c0e660d-f419-40fb-a730-735daf34ceca}, !- Handle
  {bd2ddfd2-cfa4-4d79-a65d-6f3dc4359327}; !- HVAC Component

OS:PortList,
  {890698e6-3786-4e74-a0b9-9f06031900b7}, !- Handle
  {bd2ddfd2-cfa4-4d79-a65d-6f3dc4359327}; !- HVAC Component

OS:PortList,
  {bc5821c2-c3f5-40af-8b4c-670ff01d0282}, !- Handle
  {bd2ddfd2-cfa4-4d79-a65d-6f3dc4359327}; !- HVAC Component

OS:Sizing:Zone,
  {53bff826-28b7-4f70-8477-3c7b12f2f54b}, !- Handle
  {bd2ddfd2-cfa4-4d79-a65d-6f3dc4359327}, !- Zone or ZoneList Name
  SupplyAirTemperature,                   !- Zone Cooling Design Supply Air Temperature Input Method
  14,                                     !- Zone Cooling Design Supply Air Temperature {C}
  11.11,                                  !- Zone Cooling Design Supply Air Temperature Difference {deltaC}
  SupplyAirTemperature,                   !- Zone Heating Design Supply Air Temperature Input Method
  40,                                     !- Zone Heating Design Supply Air Temperature {C}
  11.11,                                  !- Zone Heating Design Supply Air Temperature Difference {deltaC}
  0.0085,                                 !- Zone Cooling Design Supply Air Humidity Ratio {kg-H2O/kg-air}
  0.008,                                  !- Zone Heating Design Supply Air Humidity Ratio {kg-H2O/kg-air}
  ,                                       !- Zone Heating Sizing Factor
  ,                                       !- Zone Cooling Sizing Factor
  DesignDay,                              !- Cooling Design Air Flow Method
  ,                                       !- Cooling Design Air Flow Rate {m3/s}
  ,                                       !- Cooling Minimum Air Flow per Zone Floor Area {m3/s-m2}
  ,                                       !- Cooling Minimum Air Flow {m3/s}
  ,                                       !- Cooling Minimum Air Flow Fraction
  DesignDay,                              !- Heating Design Air Flow Method
  ,                                       !- Heating Design Air Flow Rate {m3/s}
  ,                                       !- Heating Maximum Air Flow per Zone Floor Area {m3/s-m2}
  ,                                       !- Heating Maximum Air Flow {m3/s}
  ,                                       !- Heating Maximum Air Flow Fraction
  No,                                     !- Account for Dedicated Outdoor Air System
  NeutralSupplyAir,                       !- Dedicated Outdoor Air System Control Strategy
  autosize,                               !- Dedicated Outdoor Air Low Setpoint Temperature for Design {C}
  autosize,                               !- Dedicated Outdoor Air High Setpoint Temperature for Design {C}
  Sensible Load Only No Latent Load,      !- Zone Load Sizing Method
  HumidityRatioDifference,                !- Zone Latent Cooling Design Supply Air Humidity Ratio Input Method
  ,                                       !- Zone Dehumidification Design Supply Air Humidity Ratio {kgWater/kgDryAir}
  0.005,                                  !- Zone Cooling Design Supply Air Humidity Ratio Difference {kgWater/kgDryAir}
  HumidityRatioDifference,                !- Zone Latent Heating Design Supply Air Humidity Ratio Input Method
  ,                                       !- Zone Humidification Design Supply Air Humidity Ratio {kgWater/kgDryAir}
  0.005,                                  !- Zone Humidification Design Supply Air Humidity Ratio Difference {kgWater/kgDryAir}
  ,                                       !- Zone Humidistat Dehumidification Set Point Schedule Name
  ,                                       !- Zone Humidistat Humidification Set Point Schedule Name
  ,                                       !- Design Zone Air Distribution Effectiveness in Cooling Mode
  ,                                       !- Design Zone Air Distribution Effectiveness in Heating Mode
  ,                                       !- Design Zone Secondary Recirculation Fraction {dimensionless}
  ,                                       !- Design Minimum Zone Ventilation Efficiency {dimensionless}
  Coincident;                             !- Sizing Option

OS:ZoneHVAC:EquipmentList,
  {88a39d57-4575-4bc2-a4f4-40890148e4ce}, !- Handle
  Zone HVAC Equipment List 2,             !- Name
  {bd2ddfd2-cfa4-4d79-a65d-6f3dc4359327}; !- Thermal Zone

OS:AdditionalProperties,
  {733149c1-8101-4dcd-97ca-aa5ee2f63f50}, !- Handle
  {bd2ddfd2-cfa4-4d79-a65d-6f3dc4359327}, !- Object Name
  ObjectType,                             !- Feature Name 1
  String,                                 !- Feature Data Type 1
  attic - vented;                         !- Feature Value 1

OS:Space,
  {819dabac-ab27-4c68-b64a-3812fc1992b7}, !- Handle
  attic - vented 1,                       !- Name
  ,                                       !- Space Type Name
  ,                                       !- Default Construction Set Name
  ,                                       !- Default Schedule Set Name
  ,                                       !- Direction of Relative North {deg}
  ,                                       !- X Origin {m}
  ,                                       !- Y Origin {m}
  ,                                       !- Z Origin {m}
  ,                                       !- Building Story Name
  {bd2ddfd2-cfa4-4d79-a65d-6f3dc4359327}, !- Thermal Zone Name
  ,                                       !- Part of Total Floor Area
  ,                                       !- Design Specification Outdoor Air Object Name
  ,                                       !- Building Unit Name
  356.389957095237;                       !- Volume {m3}

OS:Material,
  {e32fa65e-c2a8-4a36-95f1-d0daa759f2fc}, !- Handle
  asphalt or fiberglass shingles,         !- Name