
OS:Version,
  {6dcdf456-eff5-415c-8c6e-9cd22cfa8ec8}, !- Handle
  3.10.0;                                 !- Version Identifier

OS:SimulationControl,
  {b9b013f0-4f3e-42cc-b52a-2ae767f30d41}, !- Handle
  ,                                       !- Do Zone Sizing Calculation
  ,                                       !- Do System Sizing Calculation
  ,                                       !- Do Plant Sizing Calculation
  No;                                     !- Run Simulation for Sizing Periods

OS:Timestep,
  {b569f7c5-a0ee-493b-82ca-a51e3efcddfc}, !- Handle
  1;                                      !- Number of Timesteps per Hour

OS:ShadowCalculation,
  {46046a72-8929-4d8e-9d9d-347e9f6b5ccc}, !- Handle
  PolygonClipping,                        !- Shading Calculation Method
  ,                                       !- Shading Calculation Update Frequency Method
  20,                                     !- Shading Calculation Update Frequency
  200,                                    !- Maximum Figures in Shadow Overlap Calculations
  ,                                       !- Polygon Clipping Algorithm
  512,                                    !- Pixel Counting Resolution
  ,                                       !- Sky Diffuse Modeling Algorithm
  No,                                     !- Output External Shading Calculation Results
  No,                                     !- Disable Self-Shading Within Shading Zone Groups
  No;                                     !- Disable Self-Shading From Shading Zone Groups to Other Zones

OS:SurfaceConvectionAlgorithm:Outside,
  {95d9e3e5-6f13-44b5-b2d1-75142db6fd60}, !- Handle
  DOE-2;                                  !- Algorithm

OS:SurfaceConvectionAlgorithm:Inside,
  {d0a2bc11-7dda-40a1-8aa0-d2e57af38941}, !- Handle
  TARP;                                   !- Algorithm

OS:ZoneCapacitanceMultiplier:ResearchSpecial,
  {676d122a-c9e1-4edf-8c2f-744ad4356390}, !- Handle
  7,                                      !- Temperature Capacity Multiplier
  15,                                     !- Humidity Capacity Multiplier
  ;                                       !- Carbon Dioxide Capacity Multiplier

OS:ConvergenceLimits,
  {35d2510e-bd7f-4d19-b405-e952fb304a11}, !- Handle
  0;                                      !- Minimum System Timestep {minutes}

OS:RunPeriod,
  {97fefc3b-7566-42be-92ad-024d9ec2bdb5}, !- Handle
  Run Period 1,                           !- Name
  1,                                      !- Begin Month
  1,                                      !- Begin Day of Month
  12,                                     !- End Month
  31,                                     !- End Day of Month
  ,                                       !- Use Weather File Holidays and Special Days
  ,                                       !- Use Weather File Daylight Saving Period
  ,                                       !- Apply Weekend Holiday Rule
  ,                                       !- Use Weather File Rain Indicators
  ,                                       !- Use Weather File Snow Indicators
  ;                                       !- Number of Times Runperiod to be Repeated

OS:PerformancePrecisionTradeoffs,
  {f86e9ab8-5774-429f-9dd8-39d9049101df}, !- Handle
  ,                                       !- Use Coil Direct Solutions
  CarrollMRT;                             !- Zone Radiant Exchange Algorithm

OS:WeatherFile,
  {00086721-aa71-49fd-9782-2652eeaa3964}, !- Handle
  Buffalo Niagara Intl Ap,                !- City
  NY,                                     !- State Province Region
  USA,                                    !- Country
  TMY3,                                   !- Data Source
  725280,                                 !- WMO Number
  42.93,                                  !- Latitude {deg}
  -78.73,                                 !- Longitude {deg}
  -5,                                     !- Time Zone {hr}
  215,                                    !- Elevation {m}
  /Users/nmoore/github/urbanopt-example-geojson-project/example_project/weather/USA_NY_Buffalo-Greater.Buffalo.Intl.AP.725280_TMY3.epw, !- Url
  6B50E0FF,                               !- Checksum
  ,                                       !- Start Date Actual Year
  Sunday;                                 !- Start Day of Week

OS:YearDescription,
  {c77ca051-6d44-44e9-a9de-fe6733766084}, !- Handle
  2007,                                   !- Calendar Year
  ,                                       !- Day of Week for Start Day
  ;                                       !- Is Leap Year

OS:Site,
  {b5000055-1289-4b65-8aa2-cf83e903681f}, !- Handle
  Buffalo Niagara Intl Ap_NY,             !- Name
  42.93,                                  !- Latitude {deg}
  -78.73,                                 !- Longitude {deg}
  -5,                                     !- Time Zone {hr}
  215,                                    !- Elevation {m}
  Suburbs,                                !- Terrain
  Yes;                                    !- Keep Site Location Information

OS:RunPeriodControl:DaylightSavingTime,
  {0dd427c3-8759-445f-a45b-004b7c21c8b6}, !- Handle
  Mar 12,                                 !- Start Date
  Nov 5;                                  !- End Date

OS:Site:GroundTemperature:Shallow,
  {789ea619-a65a-4d9b-9166-7f5aee1180e0}, !- Handle
  4.30207395723828,                       !- January Surface Ground Temperature {C}
  2.29327249652502,                       !- February Surface Ground Temperature {C}
  2.13240047156047,                       !- March Surface Ground Temperature {C}
  3.08567940719286,                       !- April Surface Ground Temperature {C}
  6.91256312497526,                       !- May Surface Ground Temperature {C}
  10.7216195949507,                       !- June Surface Ground Temperature {C}
  14.0238679822574,                       !- July Surface Ground Temperature {C}
  16.1157611184724,                       !- August Surface Ground Temperature {C}
  16.2934789303462,                       !- September Surface Ground Temperature {C}
  14.5920754632847,                       !- October Surface Ground Temperature {C}
  11.374036348653,                        !- November Surface Ground Temperature {C}
  7.68182621661674;                       !- December Surface Ground Temperature {C}

OS:ThermalZone,
  {294e0822-20c8-4d6f-afe1-f73d9d9d9ef5}, !- Handle
  conditioned space,                      !- Name
  1,                                      !- Multiplier
  ,                                       !- Ceiling Height {m}
  692.06373070848,                        !- Volume {m3}
  ,                                       !- Floor Area {m2}
  ,                                       !- Zone Inside Convection Algorithm
  ,                                       !- Zone Outside Convection Algorithm
  ,                                       !- Zone Conditioning Equipment List Name
  {321552c6-8fb0-4777-905b-1c85e4db5e4b}, !- Zone Air Inlet Port List
  {5a6f36fc-aa23-426b-b0a0-7d17fcaef203}, !- Zone Air Exhaust Port List
  {4cf38e66-cddf-486f-8b9b-a54d078eb127}, !- Zone Air Node Name
  {15abbd92-990e-4da8-8a7b-d92994d224b3}, !- Zone Return Air Port List
  ,                                       !- Primary Daylighting Control Name
  ,                                       !- Fraction of Zone Controlled by Primary Daylighting Control
  ,                                       !- Secondary Daylighting Control Name
  ,                                       !- Fraction of Zone Controlled by Secondary Daylighting Control
  ,                                       !- Illuminance Map Name
  ,                                       !- Group Rendering Name
  {8dd87c04-2149-4e46-9cc4-64fc7e7b8f55}, !- Thermostat Name
  No;                                     !- Use Ideal Air Loads

OS:Node,
  {79772408-da0d-4c54-9863-2f9d295f0873}, !- Handle
  Node 1,                                 !- Name
  {4cf38e66-cddf-486f-8b9b-a54d078eb127}, !- Inlet Port
  ;                                       !- Outlet Port

OS:Connection,
  {4cf38e66-cddf-486f-8b9b-a54d078eb127}, !- Handle
  {294e0822-20c8-4d6f-afe1-f73d9d9d9ef5}, !- Source Object
  11,                                     !- Outlet Port
  {79772408-da0d-4c54-9863-2f9d295f0873}, !- Target Object
  2;                                      !- Inlet Port

OS:PortList,
  {321552c6-8fb0-4777-905b-1c85e4db5e4b}, !- Handle
  {294e0822-20c8-4d6f-afe1-f73d9d9d9ef5}, !- HVAC Component
  {9cc58d57-9333-4b65-92b6-f07c31e1ce94}; !- Port 1

OS:PortList,
  {5a6f36fc-aa23-426b-b0a0-7d17fcaef203}, !- Handle
  {294e0822-20c8-4d6f-afe1-f73d9d9d9ef5}; !- HVAC Component

OS:PortList,
  {15abbd92-990e-4da8-8a7b-d92994d224b3}, !- Handle
  {294e0822-20c8-4d6f-afe1-f73d9d9d9ef5}, !- HVAC Component
  {76fc0301-5e46-4df1-8bba-0485c2848dfd}; !- Port 1

OS:Sizing:Zone,
  {f3ffeae2-fa5b-45b4-9be7-d2a3c039b3e2}, !- Handle
  {294e0822-20c8-4d6f-afe1-f73d9d9d9ef5}, !- Zone or ZoneList Name
  SupplyAirTemperature,                   !- Zone Cooling Design Supply Air Temperature Input Method
  14,                                     !- Zone Cooling Design Supply Air Temperature {C}
  11.11,                                  !- Zone Cooling Design Supply Air Temperature Difference {deltaC}
  SupplyAirTemperature,                   !- Zone Heating Design Supply Air Temperature Input Method
  40,                                     !- Zone Heating Design Supply Air Temperature {C}
  11.11,                                  !- Zone Heating Design Supply Air Temperature Difference {deltaC}
  0.0085,                                 !- Zone Cooling Design Supply Air Humidity Ratio {kg-H2O/kg-air}
  0.008,                                  !- Zone Heating Design Supply Air Humidity Ratio {kg-H2O/kg-air}
  ,                                       !- Zone Heating Sizing Factor
  ,                                       !- Zone Cooling Sizing Factor
  DesignDay,                              !- Cooling Design Air Flow Method
  ,                                       !- Cooling Design Air Flow Rate {m3/s}
  ,                                       !- Cooling Minimum Air Flow per Zone Floor Area {m3/s-m2}
  ,                                       !- Cooling Minimum Air Flow {m3/s}
  ,                                       !- Cooling Minimum Air Flow Fraction
  DesignDay,                              !- Heating Design Air Flow Method
  ,                                       !- Heating Design Air Flow Rate {m3/s}
  ,                                       !- Heating Maximum Air Flow per Zone Floor Area {m3/s-m2}
  ,                                       !- Heating Maximum Air Flow {m3/s}
  ,                                       !- Heating Maximum Air Flow Fraction
  No,                                     !- Account for Dedicated Outdoor Air System
  NeutralSupplyAir,                       !- Dedicated Outdoor Air System Control Strategy
  autosize,                               !- Dedicated Outdoor Air Low Setpoint Temperature for Design {C}
  autosize,                               !- Dedicated Outdoor Air High Setpoint Temperature for Design {C}
  Sensible Load Only No Latent Load,      !- Zone Load Sizing Method
  HumidityRatioDifference,                !- Zone Latent Cooling Design Supply Air Humidity Ratio Input Method
  ,                                       !- Zone Dehumidification Design Supply Air Humidity Ratio {kgWater/kgDryAir}
  0.005,                                  !- Zone Cooling Design Supply Air Humidity Ratio Difference {kgWater/kgDryAir}
  HumidityRatioDifference,                !- Zone Latent Heating Design Supply Air Humidity Ratio Input Method
  ,                                       !- Zone Humidification Design Supply Air Humidity Ratio {kgWater/kgDryAir}
  0.005,                                  !- Zone Humidification Design Supply Air Humidity Ratio Difference {kgWater/kgDryAir}
  ,                                       !- Zone Humidistat Dehumidification Set Point Schedule Name
  ,                                       !- Zone Humidistat Humidification Set Point Schedule Name
  ,                                       !- Design Zone Air Distribution Effectiveness in Cooling Mode
  ,                                       !- Design Zone Air Distribution Effectiveness in Heating Mode
  ,                                       !- Design Zone Secondary Recirculation Fraction {dimensionless}
  ,                                       !- Design Minimum Zone Ventilation Efficiency {dimensionless}
  Coincident;                             !- Sizing Option

OS:ZoneHVAC:EquipmentList,
  {ada645dd-2484-4919-9d2d-2b370c49cedc}, !- Handle
  Zone HVAC Equipment List 1,             !- Name
  {294e0822-20c8-4d6f-afe1-f73d9d9d9ef5}, !- Thermal Zone
  ,                                       !- Load Distribution Scheme
  {ba375253-089c-402d-aff2-3006d0798fca}, !- Zone Equipment 1
  1,                                      !- Zone Equipment Cooling Sequence 1
  1,                                      !- Zone Equipment Heating or No-Load Sequence 1
  {fd1c17b0-15b0-48ac-ae7d-e4508279b93c}, !- Zone Equipment Sequential Cooling Fraction Schedule Name 1
  {6a362630-aaa8-4363-a8c1-4a1477735d2e}; !- Zone Equipment Sequential Heating Fraction Schedule Name 1

OS:AdditionalProperties,
  {e6288ed7-1ff7-4b01-b687-6dfd40bf513e}, !- Handle
  {294e0822-20c8-4d6f-afe1-f73d9d9d9ef5}, !- Object Name
  ObjectType,                             !- Feature Name 1
  String,                                 !- Feature Data Type 1
  conditioned space;                      !- Feature Value 1

OS:Space,
  {24f163f7-75a6-4d1c-80a8-f32b2a878abe}, !- Handle
  conditioned space 1,                    !- Name
  ,                                       !- Space Type Name
  ,                                       !- Default Construction Set Name
  ,                                       !- Default Schedule Set Name
  ,                                       !- Direction of Relative North {deg}
  ,                                       !- X Origin {m}
  ,                                       !- Y Origin {m}
  ,                                       !- Z Origin {m}
  ,                                       !- Building Story Name
  {294e0822-20c8-4d6f-afe1-f73d9d9d9ef5}, !- Thermal Zone Name
  ,                                       !- Part of Total Floor Area
  ,                                       !- Design Specification Outdoor Air Object Name
  ,                                       !- Building Unit Name
  692.06373070848;                        !- Volume {m3}

OS:Schedule:Ruleset,
  {7082c90d-f85f-489b-b0da-7092790cd709}, !- Handle
  heating setpoint,                       !- Name
  {fe8e55ed-b3d1-41bf-88e4-53697ddc4a7e}, !- Schedule Type Limits Name
  {f8ffa54a-6f9e-4f48-966f-64f6e36d8395}; !- Default Day Schedule Name

OS:Schedule:Day,
  {f8ffa54a-6f9e-4f48-966f-64f6e36d8395}, !- Handle
  heating setpoint default day,           !- Name
  {fe8e55ed-b3d1-41bf-88e4-53697ddc4a7e}, !- Schedule Type Limits Name
  ,                                       !- Interpolate to Timestep
  24,                                     !- Hour 1
  0,                                      !- Minute 1
  0;                                      !- Value Until Time 1

OS:Schedule:Rule,
  {e8af4574-3917-4eb4-ac32-2622a46eaecf}, !- Handle
  heating setpoint allday rule,           !- Name
  {7082c90d-f85f-489b-b0da-7092790cd709}, !- Schedule Ruleset Name
  0,                                      !- Rule Order
  {bab96ca4-2e1d-4491-83c7-9f905cf4622c}, !- Day Schedule Name
  Yes,                                    !- Apply Sunday
  Yes,                                    !- Apply Monday
  Yes,                                    !- Apply Tuesday
  Yes,                                    !- Apply Wednesday
  Yes,                                    !- Apply Thursday
  Yes,                                    !- Apply Friday
  Yes,                                    !- Apply Saturday
  DateRange,                              !- Date Specification Type
  1,                                      !- Start Month
  1,                                      !- Start Day
  12,                                     !- End Month
  31;                                     !- End Day

OS:Schedule:Day,
  {bab96ca4-2e1d-4491-83c7-9f905cf4622c}, !- Handle
  heating setpoint day,                   !- Name
  {fe8e55ed-b3d1-41bf-88e4-53697ddc4a7e}, !- Schedule Type Limits Name
  ,                                       !- Interpolate to Timestep
  24,                                     !- Hour 1
  0,                                      !- Minute 1
  20;                                     !- Value Until Time 1

OS:Schedule:Ruleset,
  {cbfd08e7-4684-43fa-83c5-8d9e9e176972}, !- Handle
  cooling setpoint,                       !- Name
  {fe8e55ed-b3d1-41bf-88e4-53697ddc4a7e}, !- Schedule Type Limits Name
  {65992e76-b659-46bd-a3f7-5c89acc16ae6}; !- Default Day Schedule Name

OS:Schedule:Day,
  {65992e76-b659-46bd-a3f7-5c89acc16ae6}, !- Handle
  cooling setpoint default day,           !- Name
  {fe8e55ed-b3d1-41bf-88e4-53697ddc4a7e}, !- Schedule Type Limits Name
  ,                                       !- Interpolate to Timestep
  24,                                     !- Hour 1
  0,                                      !- Minute 1
  0;                                      !- Value Until Time 1

OS:Schedule:Rule,
  {aee501cf-2755-4135-b609-7f54e0dd057d}, !- Handle
  cooling setpoint allday rule,           !- Name
  {cbfd08e7-4684-43fa-83c5-8d9e9e176972}, !- Schedule Ruleset Name
  0,                                      !- Rule Order
  {74f4592d-1676-4d6b-81ff-e0441b49c9e5}, !- Day Schedule Name
  Yes,                                    !- Apply Sunday
  Yes,                                    !- Apply Monday
  Yes,                                    !- Apply Tuesday
  Yes,                                    !- Apply Wednesday
  Yes,                                    !- Apply Thursday
  Yes,                                    !- Apply Friday
  Yes,                                    !- Apply Saturday
  DateRange,                              !- Date Specification Type
  1,                                      !- Start Month
  1,                                      !- Start Day
  12,                                     !- End Month
  31;                                     !- End Day

OS:Schedule:Day,
  {74f4592d-1676-4d6b-81ff-e0441b49c9e5}, !- Handle
  cooling setpoint day,                   !- Name
  {fe8e55ed-b3d1-41bf-88e4-53697ddc4a7e}, !- Schedule Type Limits Name
  ,                                       !- Interpolate to Timestep
  24,                                     !- Hour 1
  0,                                      !- Minute 1
  25.5555555555556;                       !- Value Until Time 1

OS:ThermostatSetpoint:DualSetpoint,
  {8dd87c04-2149-4e46-9cc4-64fc7e7b8f55}, !- Handle
  conditioned space temperature setpoint, !- Name
  {7082c90d-f85f-489b-b0da-7092790cd709}, !- Heating Setpoint Temperature Schedule Name
  {cbfd08e7-4684-43fa-83c5-8d9e9e176972}, !- Cooling Setpoint Temperature Schedule Name
  0;                                      !- Temperature Difference Between Cutout And Setpoint {deltaC}

OS:ScheduleTypeLimits,
  {fe8e55ed-b3d1-41bf-88e4-53697ddc4a7e}, !- Handle
  Temperature,                            !- Name
  ,                                       !- Lower Limit Value
  ,                                       !- Upper Limit Value
  Continuous,                             !- Numeric Type
  Temperature;                            !- Unit Type

OS:Surface,
  {0083d822-d363-4593-9aa4-543d1026d5ea}, !- Handle
  Roof1,                                  !- Name
  RoofCeiling,                            !- Surface Type
  {9bd75299-5cc0-4420-b03b-91dd8646eefa}, !- Construction Name
  {24f163f7-75a6-4d1c-80a8-f32b2a878abe}, !- Space Name
  Outdoors,                               !- Outside Boundary Condition
  ,                                       !- Outside Boundary Condition Object
  SunExposed,                             !- Sun Exposure
  WindExposed,                            !- Wind Exposure
  ,                                       !- View Factor to Ground
  ,                                       !- Number of Vertices
  -8.42346109387347, 8.42346109387347, 2.4384, !- X,Y,Z Vertex 1 {m}
  -8.42346109387347, -8.42346109387347, 2.4384, !- X,Y,Z Vertex 2 {m}
  8.42346109387347, -8.42346109387347, 2.4384, !- X,Y,Z Vertex 3 {m}
  8.42346109387347, 8.42346109387347, 2.4384; !- X,Y,Z Vertex 4 {m}

OS:AdditionalProperties,
  {7fe318f5-ee03-4946-9f4c-a626d306bc8d}, !- Handle
  {0083d822-d363-4593-9aa4-543d1026d5ea}, !- Object Name
  Length,                                 !- Feature Name 1
  Double,                                 !- Feature Data Type 1
  55.27205442174192,                      !- Feature Value 1
  Width,                                  !- Feature Name 2
  Double,                                 !- Feature Data Type 2
  55.272054421741913,                     !- Feature Value 2
  Azimuth,                                !- Feature Name 3
  Integer,                                !- Feature Data Type 3
  0,                                      !- Feature Value 3
  Tilt,                                   !- Feature Name 4
  Double,                                 !- Feature Data Type 4
  0,                                      !- Feature Value 4
  SurfaceType,                            !- Feature Name 5
  String,                                 !- Feature Data Type 5
  Roof;                                   !- Feature Value 5

OS:Material,
  {23039363-916d-464e-9890-dd2d9a7c05b0}, !- Handle
  asphalt or fiberglass shingles,         !- Name
  Rough,                                  !- Roughness
  0.00635,                                !- Thickness {m}
  0.162714,                               !- Conductivity {W/m-K}
  1121.4,                                 !- Density {kg/m3}
  1465.45,                                !- Specific Heat {J/kg-K}
  0.9,                                    !- Thermal Absorptance
  0.85,                                   !- Solar Absorptance
  0.85;                                   !- Visible Absorptance

OS:Material,
  {fdc74dbb-a5fc-4311-817c-a609f72ed315}, !- Handle
  roof stud and cavity,                   !- Name
  Rough,                                  !- Roughness
  0.0889,                                 !- Thickness {m}
  0.491900632004487,                      !- Conductivity {W/m-K}
  50.32683,                               !- Density {kg/m3}
  1063.80987585548,                       !- Specific Heat {J/kg-K}
  0.9,                                    !- Thermal Absorptance
  0.7,                                    !- Solar Absorptance
  0.7;                                    !- Visible Absorptance

OS:Material,
  {4538ab5e-9613-4fd0-b51c-6cca805a3e35}, !- Handle
  gypsum board,                           !- Name
  Rough,                                  !- Roughness
  0.00254,                                !- Thickness {m}
  0.1602906,                              !- Conductivity {W/m-K}
  801,                                    !- Density {kg/m3}
  837.4,                                  !- Specific Heat {J/kg-K}
  0.9,                                    !- Thermal Absorptance
  0.6,                                    !- Solar Absorptance
  0.6;                                    !- Visible Absorptance

OS:Construction,
  {9bd75299-5cc0-4420-b03b-91dd8646eefa}, !- Handle
  Roof1 construction,                     !- Name
  ,                                       !- Surface Rendering Name
  {23039363-916d-464e-9890-dd2d9a7c05b0}, !- Layer 1
  {fdc74dbb-a5fc-4311-817c-a609f72ed315}, !- Layer 2
  {4538ab5e-9613-4fd0-b51c-6cca805a3e35}; !- Layer 3

OS:Surface,
  {a19458aa-bded-4c5d-8244-b9d5f6d24796}, !- Handle
  Wall1,                                  !- Name
  Wall,                                   !- Surface Type
  {cd53809d-a95e-4f00-b43c-330a99767ecf}, !- Construction Name
  {24f163f7-75a6-4d1c-80a8-f32b2a878abe}, !- Space Name
  Outdoors,                               !- Outside Boundary Condition
  ,                                       !- Outside Boundary Condition Object
  SunExposed,                             !- Sun Exposure
  WindExposed,                            !- Wind Exposure
  ,                                       !- View Factor to Ground
  ,                                       !- Number of Vertices
  -50.3693117384615, 51.2983421384615, 0, !- X,Y,Z Vertex 1 {m}
  -50.3693117384615, 51.2983421384615, 2.4384, !- X,Y,Z Vertex 2 {m}
  -30.8354417384615, 51.2983421384615, 2.4384, !- X,Y,Z Vertex 3 {m}
  -30.8354417384615, 51.2983421384615, 0; !- X,Y,Z Vertex 4 {m}

OS:AdditionalProperties,
  {c5e26123-b0cf-4e43-99f2-fa7a68551a74}, !- Handle
  {a19458aa-bded-4c5d-8244-b9d5f6d24796}, !- Object Name
  Length,                                 !- Feature Name 1
  Double,                                 !- Feature Data Type 1
  64.087499999999991,                     !- Feature Value 1
  Azimuth,                                !- Feature Name 2
  Integer,                                !- Feature Data Type 2
  0,                                      !- Feature Value 2
  Tilt,                                   !- Feature Name 3
  Double,                                 !- Feature Data Type 3
  90,                                     !- Feature Value 3
  SurfaceType,                            !- Feature Name 4
  String,                                 !- Feature Data Type 4
  Wall;                                   !- Feature Value 4

OS:Material,
  {eb53df79-0400-482e-b68c-dca7511406af}, !- Handle
  wood siding,                            !- Name
  Rough,                                  !- Roughness
  0.0254,                                 !- Thickness {m}
  0.1024175,                              !- Conductivity {W/m-K}
  544.68,                                 !- Density {kg/m3}
  1172.36,                                !- Specific Heat {J/kg-K}
  0.9,                                    !- Thermal Absorptance
  0.7,                                    !- Solar Absorptance
  0.7;                                    !- Visible Absorptance

OS:Material,
  {a353ce35-a8ab-4428-b094-e4429ad51155}, !- Handle
  osb sheathing 0.5 in.,                  !- Name
  Rough,                                  !- Roughness
  0.0127,                                 !- Thickness {m}
  0.1154577,                              !- Conductivity {W/m-K}
  512.64,                                 !- Density {kg/m3}
  1214.23,                                !- Specific Heat {J/kg-K}
  0.9,                                    !- Thermal Absorptance
  0.7,                                    !- Solar Absorptance
  0.7;                                    !- Visible Absorptance

OS:Material,
  {4c5bf221-e28d-424a-bde1-2337194a93f0}, !- Handle
  wall stud and cavity,                   !- Name
  Rough,                                  !- Roughness
  0.1397,                                 !- Thickness {m}
  0.0929021674204099,                     !- Conductivity {W/m-K}
  139.0536,                               !- Density {kg/m3}
  1170.23755760369,                       !- Specific Heat {J/kg-K}
  0.9,                                    !- Thermal Absorptance
  0.7,                                    !- Solar Absorptance
  0.7;                                    !- Visible Absorptance

OS:Material,
  {197ae197-7661-432f-9012-ca24cea7eb25}, !- Handle
  gypsum board 1,                         !- Name
  Rough,                                  !- Roughness
  0.0127,                                 !- Thickness {m}
  0.1602906,                              !- Conductivity {W/m-K}
  801,                                    !- Density {kg/m3}
  837.4,                                  !- Specific Heat {J/kg-K}
  0.9,                                    !- Thermal Absorptance
  0.6,                                    !- Solar Absorptance
  0.6;                                    !- Visible Absorptance

OS:Construction,
  {cd53809d-a95e-4f00-b43c-330a99767ecf}, !- Handle
  Wall1 construction,                     !- Name
  ,                                       !- Surface Rendering Name
  {eb53df79-0400-482e-b68c-dca7511406af}, !- Layer 1
  {a353ce35-a8ab-4428-b094-e4429ad51155}, !- Layer 2
  {4c5bf221-e28d-424a-bde1-2337194a93f0}, !- Layer 3
  {197ae197-7661-432f-9012-ca24cea7eb25}; !- Layer 4

OS:Surface,
  {65fa6526-1c3a-47ea-b244-b588b436c3c9}, !- Handle
  Wall2,                                  !- Name
  Wall,                                   !- Surface Type
  {552dc547-7c02-45f5-bd3f-829f5dcc35a0}, !- Construction Name
  {24f163f7-75a6-4d1c-80a8-f32b2a878abe}, !- Space Name
  Outdoors,                               !- Outside Boundary Condition
  ,                                       !- Outside Boundary Condition Object
  SunExposed,                             !- Sun Exposure
  WindExposed,                            !- Wind Exposure
  ,                                       !- View Factor to Ground
  ,                                       !- Number of Vertices
  51.2983421384615, -36.2004102, 0,       !- X,Y,Z Vertex 1 {m}
  51.2983421384615, -36.2004102, 2.4384,  !- X,Y,Z Vertex 2 {m}
  51.2983421384615, -45.9692502, 2.4384,  !- X,Y,Z Vertex 3 {m}
  51.2983421384615, -45.9692502, 0;       !- X,Y,Z Vertex 4 {m}

OS:AdditionalProperties,
  {5468a77c-be49-4fbd-8050-e48f18067640}, !- Handle
  {65fa6526-1c3a-47ea-b244-b588b436c3c9}, !- Object Name
  Length,                                 !- Feature Name 1
  Double,                                 !- Feature Data Type 1
  32.049999999999997,                     !- Feature Value 1
  Azimuth,                                !- Feature Name 2