
OS:Version,
  {ce2ded69-044b-4a05-a29b-f1cc4bb712be}, !- Handle
  3.9.0;                                  !- Version Identifier

OS:SimulationControl,
  {c4c03526-c975-44ea-8539-fbed5e2c6a40}, !- Handle
  ,                                       !- Do Zone Sizing Calculation
  ,                                       !- Do System Sizing Calculation
  ,                                       !- Do Plant Sizing Calculation
  No;                                     !- Run Simulation for Sizing Periods

OS:Timestep,
  {91d0474e-38fe-484a-a38e-87a2f589d66a}, !- Handle
  1;                                      !- Number of Timesteps per Hour

OS:ShadowCalculation,
  {91e79e43-3e06-4f7f-bcd2-a60501921467}, !- Handle
  PolygonClipping,                        !- Shading Calculation Method
  ,                                       !- Shading Calculation Update Frequency Method
  20,                                     !- Shading Calculation Update Frequency
  200,                                    !- Maximum Figures in Shadow Overlap Calculations
  ,                                       !- Polygon Clipping Algorithm
  512,                                    !- Pixel Counting Resolution
  ,                                       !- Sky Diffuse Modeling Algorithm
  No,                                     !- Output External Shading Calculation Results
  No,                                     !- Disable Self-Shading Within Shading Zone Groups
  No;                                     !- Disable Self-Shading From Shading Zone Groups to Other Zones

OS:SurfaceConvectionAlgorithm:Outside,
  {1215ff3f-af32-44e8-89d8-1a43a2c6d831}, !- Handle
  DOE-2;                                  !- Algorithm

OS:SurfaceConvectionAlgorithm:Inside,
  {8d07ff59-289d-4341-946f-643ea4e5230c}, !- Handle
  TARP;                                   !- Algorithm

OS:ZoneCapacitanceMultiplier:ResearchSpecial,
  {6e7af5c7-5821-49b3-9a76-5cc1efb35728}, !- Handle
  7,                                      !- Temperature Capacity Multiplier
  15,                                     !- Humidity Capacity Multiplier
  ;                                       !- Carbon Dioxide Capacity Multiplier

OS:ConvergenceLimits,
  {d622f896-371a-4da6-b5da-32654121ffa4}, !- Handle
  0;                                      !- Minimum System Timestep {minutes}

OS:RunPeriod,
  {ee4df01c-5d62-4177-ab49-77033cbb7278}, !- Handle
  Run Period 1,                           !- Name
  1,                                      !- Begin Month
  1,                                      !- Begin Day of Month
  12,                                     !- End Month
  31,                                     !- End Day of Month
  ,                                       !- Use Weather File Holidays and Special Days
  ,                                       !- Use Weather File Daylight Saving Period
  ,                                       !- Apply Weekend Holiday Rule
  ,                                       !- Use Weather File Rain Indicators
  ,                                       !- Use Weather File Snow Indicators
  ;                                       !- Number of Times Runperiod to be Repeated

OS:PerformancePrecisionTradeoffs,
  {61472fe4-e3b5-462d-9990-7493a8c8a646}, !- Handle
  ,                                       !- Use Coil Direct Solutions
  CarrollMRT;                             !- Zone Radiant Exchange Algorithm

OS:WeatherFile,
  {edfefe3c-ef05-4241-beec-e272b07c7f7a}, !- Handle
  Buffalo Niagara Intl Ap,                !- City
  NY,                                     !- State Province Region
  USA,                                    !- Country
  TMY3,                                   !- Data Source
  725280,                                 !- WMO Number
  42.93,                                  !- Latitude {deg}
  -78.73,                                 !- Longitude {deg}
  -5,                                     !- Time Zone {hr}
  215,                                    !- Elevation {m}
  /Users/nmoore/github/urbanopt-example-geojson-project/example_project/weather/USA_NY_Buffalo-Greater.Buffalo.Intl.AP.725280_TMY3.epw, !- Url
  6B50E0FF,                               !- Checksum
  ,                                       !- Start Date Actual Year
  Sunday;                                 !- Start Day of Week

OS:YearDescription,
  {51cb478e-fe04-45b5-b736-372d3bf010d7}, !- Handle
  2007,                                   !- Calendar Year
  ,                                       !- Day of Week for Start Day
  ;                                       !- Is Leap Year

OS:Site,
  {fec7297f-861a-4115-b99e-b8fa62c3d146}, !- Handle
  Buffalo Niagara Intl Ap_NY,             !- Name
  42.93,                                  !- Latitude {deg}
  -78.73,                                 !- Longitude {deg}
  -5,                                     !- Time Zone {hr}
  215,                                    !- Elevation {m}
  Suburbs,                                !- Terrain
  Yes;                                    !- Keep Site Location Information

OS:RunPeriodControl:DaylightSavingTime,
  {a1cfa690-c487-488d-885e-2cd0ac917567}, !- Handle
  Mar 12,                                 !- Start Date
  Nov 5;                                  !- End Date

OS:Site:GroundTemperature:Shallow,
  {1b72fa99-5ee8-4f64-825f-2b48a82ccf6f}, !- Handle
  4.30207395723828,                       !- January Surface Ground Temperature {C}
  2.29327249652502,                       !- February Surface Ground Temperature {C}
  2.13240047156047,                       !- March Surface Ground Temperature {C}
  3.08567940719286,                       !- April Surface Ground Temperature {C}
  6.91256312497526,                       !- May Surface Ground Temperature {C}
  10.7216195949507,                       !- June Surface Ground Temperature {C}
  14.0238679822574,                       !- July Surface Ground Temperature {C}
  16.1157611184724,                       !- August Surface Ground Temperature {C}
  16.2934789303462,                       !- September Surface Ground Temperature {C}
  14.5920754632847,                       !- October Surface Ground Temperature {C}
  11.374036348653,                        !- November Surface Ground Temperature {C}
  7.68182621661674;                       !- December Surface Ground Temperature {C}

OS:ThermalZone,
  {7235e733-4c75-4a63-b4cb-f885559624e5}, !- Handle
  conditioned space,                      !- Name
  1,                                      !- Multiplier
  ,                                       !- Ceiling Height {m}
  692.06373070848,                        !- Volume {m3}
  ,                                       !- Floor Area {m2}
  ,                                       !- Zone Inside Convection Algorithm
  ,                                       !- Zone Outside Convection Algorithm
  ,                                       !- Zone Conditioning Equipment List Name
  {64ecefa3-5261-42a1-aab3-b4c35aed25ca}, !- Zone Air Inlet Port List
  {ec595a3c-4b54-4f52-b1ba-d0a812c4acf0}, !- Zone Air Exhaust Port List
  {7893be6c-b5f1-4c2a-978d-e3504a52bcb6}, !- Zone Air Node Name
  {02f24dc8-c2e7-49b4-ad8c-091a807f0545}, !- Zone Return Air Port List
  ,                                       !- Primary Daylighting Control Name
  ,                                       !- Fraction of Zone Controlled by Primary Daylighting Control
  ,                                       !- Secondary Daylighting Control Name
  ,                                       !- Fraction of Zone Controlled by Secondary Daylighting Control
  ,                                       !- Illuminance Map Name
  ,                                       !- Group Rendering Name
  {3b309763-6aab-410d-9388-9049156df6c0}, !- Thermostat Name
  No;                                     !- Use Ideal Air Loads

OS:Node,
  {8df9e8a3-028e-44f9-8d8e-42d7220db3b7}, !- Handle
  Node 1,                                 !- Name
  {7893be6c-b5f1-4c2a-978d-e3504a52bcb6}, !- Inlet Port
  ;                                       !- Outlet Port

OS:Connection,
  {7893be6c-b5f1-4c2a-978d-e3504a52bcb6}, !- Handle
  {7235e733-4c75-4a63-b4cb-f885559624e5}, !- Source Object
  11,                                     !- Outlet Port
  {8df9e8a3-028e-44f9-8d8e-42d7220db3b7}, !- Target Object
  2;                                      !- Inlet Port

OS:PortList,
  {64ecefa3-5261-42a1-aab3-b4c35aed25ca}, !- Handle
  {7235e733-4c75-4a63-b4cb-f885559624e5}, !- HVAC Component
  {a5852a46-6d28-44de-8a37-6033957e0ce0}; !- Port 1

OS:PortList,
  {ec595a3c-4b54-4f52-b1ba-d0a812c4acf0}, !- Handle
  {7235e733-4c75-4a63-b4cb-f885559624e5}; !- HVAC Component

OS:PortList,
  {02f24dc8-c2e7-49b4-ad8c-091a807f0545}, !- Handle
  {7235e733-4c75-4a63-b4cb-f885559624e5}, !- HVAC Component
  {40509ccd-be3b-4f87-acdb-1ff94fa84157}; !- Port 1

OS:Sizing:Zone,
  {86bedbec-b413-4731-9296-05607c3cc49d}, !- Handle
  {7235e733-4c75-4a63-b4cb-f885559624e5}, !- Zone or ZoneList Name
  SupplyAirTemperature,                   !- Zone Cooling Design Supply Air Temperature Input Method
  14,                                     !- Zone Cooling Design Supply Air Temperature {C}
  11.11,                                  !- Zone Cooling Design Supply Air Temperature Difference {deltaC}
  SupplyAirTemperature,                   !- Zone Heating Design Supply Air Temperature Input Method
  40,                                     !- Zone Heating Design Supply Air Temperature {C}
  11.11,                                  !- Zone Heating Design Supply Air Temperature Difference {deltaC}
  0.0085,                                 !- Zone Cooling Design Supply Air Humidity Ratio {kg-H2O/kg-air}
  0.008,                                  !- Zone Heating Design Supply Air Humidity Ratio {kg-H2O/kg-air}
  ,                                       !- Zone Heating Sizing Factor
  ,                                       !- Zone Cooling Sizing Factor
  DesignDay,                              !- Cooling Design Air Flow Method
  ,                                       !- Cooling Design Air Flow Rate {m3/s}
  ,                                       !- Cooling Minimum Air Flow per Zone Floor Area {m3/s-m2}
  ,                                       !- Cooling Minimum Air Flow {m3/s}
  ,                                       !- Cooling Minimum Air Flow Fraction
  DesignDay,                              !- Heating Design Air Flow Method
  ,                                       !- Heating Design Air Flow Rate {m3/s}
  ,                                       !- Heating Maximum Air Flow per Zone Floor Area {m3/s-m2}
  ,                                       !- Heating Maximum Air Flow {m3/s}
  ,                                       !- Heating Maximum Air Flow Fraction
  No,                                     !- Account for Dedicated Outdoor Air System
  NeutralSupplyAir,                       !- Dedicated Outdoor Air System Control Strategy
  autosize,                               !- Dedicated Outdoor Air Low Setpoint Temperature for Design {C}
  autosize,                               !- Dedicated Outdoor Air High Setpoint Temperature for Design {C}
  Sensible Load Only No Latent Load,      !- Zone Load Sizing Method
  HumidityRatioDifference,                !- Zone Latent Cooling Design Supply Air Humidity Ratio Input Method
  ,                                       !- Zone Dehumidification Design Supply Air Humidity Ratio {kgWater/kgDryAir}
  0.005,                                  !- Zone Cooling Design Supply Air Humidity Ratio Difference {kgWater/kgDryAir}
  HumidityRatioDifference,                !- Zone Latent Heating Design Supply Air Humidity Ratio Input Method
  ,                                       !- Zone Humidification Design Supply Air Humidity Ratio {kgWater/kgDryAir}
  0.005,                                  !- Zone Humidification Design Supply Air Humidity Ratio Difference {kgWater/kgDryAir}
  ,                                       !- Zone Humidistat Dehumidification Set Point Schedule Name
  ,                                       !- Zone Humidistat Humidification Set Point Schedule Name
  ,                                       !- Design Zone Air Distribution Effectiveness in Cooling Mode
  ,                                       !- Design Zone Air Distribution Effectiveness in Heating Mode
  ,                                       !- Design Zone Secondary Recirculation Fraction {dimensionless}
  ,                                       !- Design Minimum Zone Ventilation Efficiency {dimensionless}
  Coincident;                             !- Sizing Option

OS:ZoneHVAC:EquipmentList,
  {4d2f4799-24e5-4d96-9e62-eca85a42cbc0}, !- Handle
  Zone HVAC Equipment List 1,             !- Name
  {7235e733-4c75-4a63-b4cb-f885559624e5}, !- Thermal Zone
  ,                                       !- Load Distribution Scheme
  {81570326-f672-4b3e-9a08-c36bd9d43000}, !- Zone Equipment 1
  1,                                      !- Zone Equipment Cooling Sequence 1
  1,                                      !- Zone Equipment Heating or No-Load Sequence 1
  {c68b123a-8fe2-4819-af05-3ab9ad72f60c}, !- Zone Equipment Sequential Cooling Fraction Schedule Name 1
  {e6e0264d-f5a2-4bf9-be74-9846a1a26fb5}; !- Zone Equipment Sequential Heating Fraction Schedule Name 1

OS:AdditionalProperties,
  {b270e2f0-768f-4c9d-a388-743107bff1b3}, !- Handle
  {7235e733-4c75-4a63-b4cb-f885559624e5}, !- Object Name
  ObjectType,                             !- Feature Name 1
  String,                                 !- Feature Data Type 1
  conditioned space;                      !- Feature Value 1

OS:Space,
  {6eb2c559-16d8-42d8-b089-904e682a8683}, !- Handle
  conditioned space 1,                    !- Name
  ,                                       !- Space Type Name
  ,                                       !- Default Construction Set Name
  ,                                       !- Default Schedule Set Name
  ,                                       !- Direction of Relative North {deg}
  ,                                       !- X Origin {m}
  ,                                       !- Y Origin {m}
  ,                                       !- Z Origin {m}
  ,                                       !- Building Story Name
  {7235e733-4c75-4a63-b4cb-f885559624e5}, !- Thermal Zone Name
  ,                                       !- Part of Total Floor Area
  ,                                       !- Design Specification Outdoor Air Object Name
  ,                                       !- Building Unit Name
  692.06373070848;                        !- Volume {m3}

OS:Schedule:Ruleset,
  {d8df500d-7a93-49d2-8316-cf7e747051f7}, !- Handle
  heating setpoint,                       !- Name
  {3ce4e191-aab9-490c-9268-1321e9949340}, !- Schedule Type Limits Name
  {b88582f3-f0c2-4297-b2de-a3b180434be4}; !- Default Day Schedule Name

OS:Schedule:Day,
  {b88582f3-f0c2-4297-b2de-a3b180434be4}, !- Handle
  heating setpoint default day,           !- Name
  {3ce4e191-aab9-490c-9268-1321e9949340}, !- Schedule Type Limits Name
  ,                                       !- Interpolate to Timestep
  24,                                     !- Hour 1
  0,                                      !- Minute 1
  0;                                      !- Value Until Time 1

OS:Schedule:Rule,
  {90ca9afd-e12f-49a6-bd76-d1668b53db82}, !- Handle
  heating setpoint allday rule,           !- Name
  {d8df500d-7a93-49d2-8316-cf7e747051f7}, !- Schedule Ruleset Name
  0,                                      !- Rule Order
  {0576bc8b-3370-4932-96c7-cfdcda85c766}, !- Day Schedule Name
  Yes,                                    !- Apply Sunday
  Yes,                                    !- Apply Monday
  Yes,                                    !- Apply Tuesday
  Yes,                                    !- Apply Wednesday
  Yes,                                    !- Apply Thursday
  Yes,                                    !- Apply Friday
  Yes,                                    !- Apply Saturday
  DateRange,                              !- Date Specification Type
  1,                                      !- Start Month
  1,                                      !- Start Day
  12,                                     !- End Month
  31;                                     !- End Day

OS:Schedule:Day,
  {0576bc8b-3370-4932-96c7-cfdcda85c766}, !- Handle
  heating setpoint day,                   !- Name
  {3ce4e191-aab9-490c-9268-1321e9949340}, !- Schedule Type Limits Name
  ,                                       !- Interpolate to Timestep
  24,                                     !- Hour 1
  0,                                      !- Minute 1
  20;                                     !- Value Until Time 1

OS:Schedule:Ruleset,
  {dafd6ba3-deea-4c60-8795-d24c99d94533}, !- Handle
  cooling setpoint,                       !- Name
  {3ce4e191-aab9-490c-9268-1321e9949340}, !- Schedule Type Limits Name
  {97fece29-91a3-4e2b-87d3-2033250de9b3}; !- Default Day Schedule Name

OS:Schedule:Day,
  {97fece29-91a3-4e2b-87d3-2033250de9b3}, !- Handle
  cooling setpoint default day,           !- Name
  {3ce4e191-aab9-490c-9268-1321e9949340}, !- Schedule Type Limits Name
  ,                                       !- Interpolate to Timestep
  24,                                     !- Hour 1
  0,                                      !- Minute 1
  0;                                      !- Value Until Time 1

OS:Schedule:Rule,
  {6c960e8c-635c-4c62-ad09-1fcf2c1f3c51}, !- Handle
  cooling setpoint allday rule,           !- Name
  {dafd6ba3-deea-4c60-8795-d24c99d94533}, !- Schedule Ruleset Name
  0,                                      !- Rule Order
  {519580b8-c2a8-4804-b918-c65cb6335f3e}, !- Day Schedule Name
  Yes,                                    !- Apply Sunday
  Yes,                                    !- Apply Monday
  Yes,                                    !- Apply Tuesday
  Yes,                                    !- Apply Wednesday
  Yes,                                    !- Apply Thursday
  Yes,                                    !- Apply Friday
  Yes,                                    !- Apply Saturday
  DateRange,                              !- Date Specification Type
  1,                                      !- Start Month
  1,                                      !- Start Day
  12,                                     !- End Month
  31;                                     !- End Day

OS:Schedule:Day,
  {519580b8-c2a8-4804-b918-c65cb6335f3e}, !- Handle
  cooling setpoint day,                   !- Name
  {3ce4e191-aab9-490c-9268-1321e9949340}, !- Schedule Type Limits Name
  ,                                       !- Interpolate to Timestep
  24,                                     !- Hour 1
  0,                                      !- Minute 1
  25.5555555555556;                       !- Value Until Time 1

OS:ThermostatSetpoint:DualSetpoint,
  {3b309763-6aab-410d-9388-9049156df6c0}, !- Handle
  conditioned space temperature setpoint, !- Name
  {d8df500d-7a93-49d2-8316-cf7e747051f7}, !- Heating Setpoint Temperature Schedule Name
  {dafd6ba3-deea-4c60-8795-d24c99d94533}, !- Cooling Setpoint Temperature Schedule Name
  0;                                      !- Temperature Difference Between Cutout And Setpoint {deltaC}

OS:ScheduleTypeLimits,
  {3ce4e191-aab9-490c-9268-1321e9949340}, !- Handle
  Temperature,                            !- Name
  ,                                       !- Lower Limit Value
  ,                                       !- Upper Limit Value
  Continuous,                             !- Numeric Type
  Temperature;                            !- Unit Type

OS:Surface,
  {c85b7a91-8574-477d-b32e-b49451255be7}, !- Handle
  Roof1,                                  !- Name
  RoofCeiling,                            !- Surface Type
  {ed236211-abc2-4073-9018-49711ff464f5}, !- Construction Name
  {6eb2c559-16d8-42d8-b089-904e682a8683}, !- Space Name
  Outdoors,                               !- Outside Boundary Condition
  ,                                       !- Outside Boundary Condition Object
  SunExposed,                             !- Sun Exposure
  WindExposed,                            !- Wind Exposure
  ,                                       !- View Factor to Ground
  ,                                       !- Number of Vertices
  -8.42346109387347, 8.42346109387347, 2.4384, !- X,Y,Z Vertex 1 {m}
  -8.42346109387347, -8.42346109387347, 2.4384, !- X,Y,Z Vertex 2 {m}
  8.42346109387347, -8.42346109387347, 2.4384, !- X,Y,Z Vertex 3 {m}
  8.42346109387347, 8.42346109387347, 2.4384; !- X,Y,Z Vertex 4 {m}

OS:AdditionalProperties,
  {b2c39397-d0a1-4703-8bcb-5cb20246c2ac}, !- Handle
  {c85b7a91-8574-477d-b32e-b49451255be7}, !- Object Name
  Length,                                 !- Feature Name 1
  Double,                                 !- Feature Data Type 1
  55.27205442174192,                      !- Feature Value 1
  Width,                                  !- Feature Name 2
  Double,                                 !- Feature Data Type 2
  55.272054421741913,                     !- Feature Value 2
  Azimuth,                                !- Feature Name 3
  Integer,                                !- Feature Data Type 3
  0,                                      !- Feature Value 3
  Tilt,                                   !- Feature Name 4
  Double,                                 !- Feature Data Type 4
  0,                                      !- Feature Value 4
  SurfaceType,                            !- Feature Name 5
  String,                                 !- Feature Data Type 5
  Roof;                                   !- Feature Value 5

OS:Material,
  {ecad3f26-49e0-43e0-9209-daf25f51f059}, !- Handle
  asphalt or fiberglass shingles,         !- Name
  Rough,                                  !- Roughness
  0.00635,                                !- Thickness {m}
  0.162714,                               !- Conductivity {W/m-K}
  1121.4,                                 !- Density {kg/m3}
  1465.45,                                !- Specific Heat {J/kg-K}
  0.9,                                    !- Thermal Absorptance
  0.85,                                   !- Solar Absorptance
  0.85;                                   !- Visible Absorptance

OS:Material,
  {13c97831-7aff-4246-9454-fc93ca35eeb8}, !- Handle
  roof stud and cavity,                   !- Name
  Rough,                                  !- Roughness
  0.0889,                                 !- Thickness {m}
  0.491900632004487,                      !- Conductivity {W/m-K}
  50.32683,                               !- Density {kg/m3}
  1063.80987585548,                       !- Specific Heat {J/kg-K}
  0.9,                                    !- Thermal Absorptance
  0.7,                                    !- Solar Absorptance
  0.7;                                    !- Visible Absorptance

OS:Material,
  {6a6084da-8388-4c5c-b972-543fe16c0d76}, !- Handle
  gypsum board,                           !- Name
  Rough,                                  !- Roughness
  0.00254,                                !- Thickness {m}
  0.1602906,                              !- Conductivity {W/m-K}
  801,                                    !- Density {kg/m3}
  837.4,                                  !- Specific Heat {J/kg-K}
  0.9,                                    !- Thermal Absorptance
  0.6,                                    !- Solar Absorptance
  0.6;                                    !- Visible Absorptance

OS:Construction,
  {ed236211-abc2-4073-9018-49711ff464f5}, !- Handle
  Roof1 construction,                     !- Name
  ,                                       !- Surface Rendering Name
  {ecad3f26-49e0-43e0-9209-daf25f51f059}, !- Layer 1
  {13c97831-7aff-4246-9454-fc93ca35eeb8}, !- Layer 2
  {6a6084da-8388-4c5c-b972-543fe16c0d76}; !- Layer 3

OS:Surface,
  {ac52f661-ff26-4c1f-8f83-346faf636b13}, !- Handle
  Wall1,                                  !- Name
  Wall,                                   !- Surface Type
  {dc22fcdf-b49a-4c98-9a26-66bb6047a850}, !- Construction Name
  {6eb2c559-16d8-42d8-b089-904e682a8683}, !- Space Name
  Outdoors,                               !- Outside Boundary Condition
  ,                                       !- Outside Boundary Condition Object
  SunExposed,                             !- Sun Exposure
  WindExposed,                            !- Wind Exposure
  ,                                       !- View Factor to Ground
  ,                                       !- Number of Vertices
  -50.3693117384615, 51.2983421384615, 0, !- X,Y,Z Vertex 1 {m}
  -50.3693117384615, 51.2983421384615, 2.4384, !- X,Y,Z Vertex 2 {m}
  -30.8354417384615, 51.2983421384615, 2.4384, !- X,Y,Z Vertex 3 {m}
  -30.8354417384615, 51.2983421384615, 0; !- X,Y,Z Vertex 4 {m}

OS:AdditionalProperties,
  {cb36cc47-284b-419d-be82-d61f5640ff93}, !- Handle
  {ac52f661-ff26-4c1f-8f83-346faf636b13}, !- Object Name
  Length,                                 !- Feature Name 1
  Double,                                 !- Feature Data Type 1
  64.087499999999991,                     !- Feature Value 1
  Azimuth,                                !- Feature Name 2
  Integer,                                !- Feature Data Type 2
  0,                                      !- Feature Value 2
  Tilt,                                   !- Feature Name 3
  Double,                                 !- Feature Data Type 3
  90,                                     !- Feature Value 3
  SurfaceType,                            !- Feature Name 4
  String,                                 !- Feature Data Type 4
  Wall;                                   !- Feature Value 4

OS:Material,
  {e60fa94f-c373-493f-a4bf-ce85863735bb}, !- Handle
  wood siding,                            !- Name
  Rough,                                  !- Roughness
  0.0254,                                 !- Thickness {m}
  0.1024175,                              !- Conductivity {W/m-K}
  544.68,                                 !- Density {kg/m3}
  1172.36,                                !- Specific Heat {J/kg-K}
  0.9,                                    !- Thermal Absorptance
  0.7,                                    !- Solar Absorptance
  0.7;                                    !- Visible Absorptance

OS:Material,
  {66abb7ac-f937-4375-bef4-13ce55c6e8b9}, !- Handle
  osb sheathing 0.5 in.,                  !- Name
  Rough,                                  !- Roughness
  0.0127,                                 !- Thickness {m}
  0.1154577,                              !- Conductivity {W/m-K}
  512.64,                                 !- Density {kg/m3}
  1214.23,                                !- Specific Heat {J/kg-K}
  0.9,                                    !- Thermal Absorptance
  0.7,                                    !- Solar Absorptance
  0.7;                                    !- Visible Absorptance

OS:Material,
  {164e06a4-b551-40b3-820b-c73c8af9d316}, !- Handle
  wall stud and cavity,                   !- Name
  Rough,                                  !- Roughness
  0.1397,                                 !- Thickness {m}
  0.0929021674204099,                     !- Conductivity {W/m-K}
  139.0536,                               !- Density {kg/m3}
  1170.23755760369,                       !- Specific Heat {J/kg-K}
  0.9,                                    !- Thermal Absorptance
  0.7,                                    !- Solar Absorptance
  0.7;                                    !- Visible Absorptance

OS:Material,
  {9945006d-d20a-422e-86f7-af07da4e81e1}, !- Handle
  gypsum board 1,                         !- Name
  Rough,                                  !- Roughness
  0.0127,                                 !- Thickness {m}
  0.1602906,                              !- Conductivity {W/m-K}
  801,                                    !- Density {kg/m3}
  837.4,                                  !- Specific Heat {J/kg-K}
  0.9,                                    !- Thermal Absorptance
  0.6,                                    !- Solar Absorptance
  0.6;                                    !- Visible Absorptance

OS:Construction,
  {dc22fcdf-b49a-4c98-9a26-66bb6047a850}, !- Handle
  Wall1 construction,                     !- Name
  ,                                       !- Surface Rendering Name
  {e60fa94f-c373-493f-a4bf-ce85863735bb}, !- Layer 1
  {66abb7ac-f937-4375-bef4-13ce55c6e8b9}, !- Layer 2
  {164e06a4-b551-40b3-820b-c73c8af9d316}, !- Layer 3
  {9945006d-d20a-422e-86f7-af07da4e81e1}; !- Layer 4

OS:Surface,
  {329cf1db-b22c-4523-9abb-ffbbf56428ef}, !- Handle
  Wall2,                                  !- Name
  Wall,                                   !- Surface Type
  {f28500ec-6676-446a-9f85-ac9483156bff}, !- Construction Name
  {6eb2c559-16d8-42d8-b089-904e682a8683}, !- Space Name
  Outdoors,                               !- Outside Boundary Condition
  ,                                       !- Outside Boundary Condition Object
  SunExposed,                             !- Sun Exposure
  WindExposed,                            !- Wind Exposure
  ,                                       !- View Factor to Ground
  ,                                       !- Number of Vertices
  51.2983421384615, -36.2004102, 0,       !- X,Y,Z Vertex 1 {m}
  51.2983421384615, -36.2004102, 2.4384,  !- X,Y,Z Vertex 2 {m}
  51.2983421384615, -45.9692502, 2.4384,  !- X,Y,Z Vertex 3 {m}
  51.2983421384615, -45.9692502, 0;       !- X,Y,Z Vertex 4 {m}

OS:AdditionalProperties,
  {ab6c12ea-430e-4388-941f-ca569941c8bd}, !- Handle
  {329cf1db-b22c-4523-9abb-ffbbf56428ef}, !- Object Name
  Length,                                 !- Feature Name 1
  Double,                                 !- Feature Data Type 1
  32.049999999999997,                     !- Feature Value 1
  Azimuth,                                !- Feature Name 2