
OS:Version,
  {10ddcbd7-1c4f-4c37-91aa-7e3ebe2d710d}, !- Handle
  3.9.0;                                  !- Version Identifier

OS:SimulationControl,
  {e24dbed3-29c1-4d0f-a42d-5e00a2f20c47}, !- Handle
  ,                                       !- Do Zone Sizing Calculation
  ,                                       !- Do System Sizing Calculation
  ,                                       !- Do Plant Sizing Calculation
  No;                                     !- Run Simulation for Sizing Periods

OS:Timestep,
  {603670fb-0488-4da7-8c12-1006cb813420}, !- Handle
  1;                                      !- Number of Timesteps per Hour

OS:ShadowCalculation,
  {e399c008-db4a-4d3d-a497-cace3fde7738}, !- Handle
  PolygonClipping,                        !- Shading Calculation Method
  ,                                       !- Shading Calculation Update Frequency Method
  20,                                     !- Shading Calculation Update Frequency
  200,                                    !- Maximum Figures in Shadow Overlap Calculations
  ,                                       !- Polygon Clipping Algorithm
  512,                                    !- Pixel Counting Resolution
  ,                                       !- Sky Diffuse Modeling Algorithm
  No,                                     !- Output External Shading Calculation Results
  No,                                     !- Disable Self-Shading Within Shading Zone Groups
  No;                                     !- Disable Self-Shading From Shading Zone Groups to Other Zones

OS:SurfaceConvectionAlgorithm:Outside,
  {7cb6995a-d940-48af-baeb-8f816ffa04cb}, !- Handle
  DOE-2;                                  !- Algorithm

OS:SurfaceConvectionAlgorithm:Inside,
  {873184b0-f4eb-416a-b468-9cd9879e02a2}, !- Handle
  TARP;                                   !- Algorithm

OS:ZoneCapacitanceMultiplier:ResearchSpecial,
  {087f4a15-0283-44ab-b35a-0e174da38177}, !- Handle
  7,                                      !- Temperature Capacity Multiplier
  15,                                     !- Humidity Capacity Multiplier
  ;                                       !- Carbon Dioxide Capacity Multiplier

OS:ConvergenceLimits,
  {993d2fd5-0c0d-485d-a4f1-92b7100129c5}, !- Handle
  0;                                      !- Minimum System Timestep {minutes}

OS:RunPeriod,
  {a849e0d4-aaf9-46a9-afdd-c07c912d5b64}, !- Handle
  Run Period 1,                           !- Name
  1,                                      !- Begin Month
  1,                                      !- Begin Day of Month
  12,                                     !- End Month
  31,                                     !- End Day of Month
  ,                                       !- Use Weather File Holidays and Special Days
  ,                                       !- Use Weather File Daylight Saving Period
  ,                                       !- Apply Weekend Holiday Rule
  ,                                       !- Use Weather File Rain Indicators
  ,                                       !- Use Weather File Snow Indicators
  ;                                       !- Number of Times Runperiod to be Repeated

OS:PerformancePrecisionTradeoffs,
  {7bb117cb-a684-43e9-901a-a1c8f0027250}, !- Handle
  ,                                       !- Use Coil Direct Solutions
  CarrollMRT;                             !- Zone Radiant Exchange Algorithm

OS:WeatherFile,
  {3ad9f568-7677-4bd5-83d8-b0bbc2529237}, !- Handle
  Buffalo Niagara Intl Ap,                !- City
  NY,                                     !- State Province Region
  USA,                                    !- Country
  TMY3,                                   !- Data Source
  725280,                                 !- WMO Number
  42.93,                                  !- Latitude {deg}
  -78.73,                                 !- Longitude {deg}
  -5,                                     !- Time Zone {hr}
  215,                                    !- Elevation {m}
  /Users/nmoore/github/urbanopt-example-geojson-project/example_project/weather/USA_NY_Buffalo-Greater.Buffalo.Intl.AP.725280_TMY3.epw, !- Url
  6B50E0FF,                               !- Checksum
  ,                                       !- Start Date Actual Year
  Sunday;                                 !- Start Day of Week

OS:YearDescription,
  {f637bc2d-5708-49dd-b275-9ba5b0c0c047}, !- Handle
  2007,                                   !- Calendar Year
  ,                                       !- Day of Week for Start Day
  ;                                       !- Is Leap Year

OS:Site,
  {0b962338-bf61-44b4-996e-9dbef4ed4c00}, !- Handle
  Buffalo Niagara Intl Ap_NY,             !- Name
  42.93,                                  !- Latitude {deg}
  -78.73,                                 !- Longitude {deg}
  -5,                                     !- Time Zone {hr}
  215,                                    !- Elevation {m}
  Suburbs,                                !- Terrain
  Yes;                                    !- Keep Site Location Information

OS:RunPeriodControl:DaylightSavingTime,
  {3b5cd5ab-445a-4b44-a6cf-b94b07920053}, !- Handle
  Mar 12,                                 !- Start Date
  Nov 5;                                  !- End Date

OS:Site:GroundTemperature:Shallow,
  {825c81cd-d1b7-4634-8987-76dd776f7382}, !- Handle
  4.30207395723828,                       !- January Surface Ground Temperature {C}
  2.29327249652502,                       !- February Surface Ground Temperature {C}
  2.13240047156047,                       !- March Surface Ground Temperature {C}
  3.08567940719286,                       !- April Surface Ground Temperature {C}
  6.91256312497526,                       !- May Surface Ground Temperature {C}
  10.7216195949507,                       !- June Surface Ground Temperature {C}
  14.0238679822574,                       !- July Surface Ground Temperature {C}
  16.1157611184724,                       !- August Surface Ground Temperature {C}
  16.2934789303462,                       !- September Surface Ground Temperature {C}
  14.5920754632847,                       !- October Surface Ground Temperature {C}
  11.374036348653,                        !- November Surface Ground Temperature {C}
  7.68182621661674;                       !- December Surface Ground Temperature {C}

OS:ThermalZone,
  {e8ee0f79-aec8-43f7-84c1-c95ed7f01fee}, !- Handle
  conditioned space,                      !- Name
  1,                                      !- Multiplier
  ,                                       !- Ceiling Height {m}
  692.06373070848,                        !- Volume {m3}
  ,                                       !- Floor Area {m2}
  ,                                       !- Zone Inside Convection Algorithm
  ,                                       !- Zone Outside Convection Algorithm
  ,                                       !- Zone Conditioning Equipment List Name
  {820df396-e718-4450-bd31-13b203f4f093}, !- Zone Air Inlet Port List
  {d3ec8f72-2a03-4b4d-b5d0-855804b87e45}, !- Zone Air Exhaust Port List
  {1778ae5a-15dd-4cd5-a1f9-d47585862e7a}, !- Zone Air Node Name
  {fb69216b-09bd-4671-9b85-6d9fbc60519b}, !- Zone Return Air Port List
  ,                                       !- Primary Daylighting Control Name
  ,                                       !- Fraction of Zone Controlled by Primary Daylighting Control
  ,                                       !- Secondary Daylighting Control Name
  ,                                       !- Fraction of Zone Controlled by Secondary Daylighting Control
  ,                                       !- Illuminance Map Name
  ,                                       !- Group Rendering Name
  {b15c87b5-cfe3-4f67-8454-f0a25e02683e}, !- Thermostat Name
  No;                                     !- Use Ideal Air Loads

OS:Node,
  {0ff138f8-b484-4aad-aee4-12f88be2953a}, !- Handle
  Node 1,                                 !- Name
  {1778ae5a-15dd-4cd5-a1f9-d47585862e7a}, !- Inlet Port
  ;                                       !- Outlet Port

OS:Connection,
  {1778ae5a-15dd-4cd5-a1f9-d47585862e7a}, !- Handle
  {e8ee0f79-aec8-43f7-84c1-c95ed7f01fee}, !- Source Object
  11,                                     !- Outlet Port
  {0ff138f8-b484-4aad-aee4-12f88be2953a}, !- Target Object
  2;                                      !- Inlet Port

OS:PortList,
  {820df396-e718-4450-bd31-13b203f4f093}, !- Handle
  {e8ee0f79-aec8-43f7-84c1-c95ed7f01fee}, !- HVAC Component
  {459f622f-5d70-4154-9277-9aff4bdb93b7}; !- Port 1

OS:PortList,
  {d3ec8f72-2a03-4b4d-b5d0-855804b87e45}, !- Handle
  {e8ee0f79-aec8-43f7-84c1-c95ed7f01fee}; !- HVAC Component

OS:PortList,
  {fb69216b-09bd-4671-9b85-6d9fbc60519b}, !- Handle
  {e8ee0f79-aec8-43f7-84c1-c95ed7f01fee}, !- HVAC Component
  {99548b82-98ac-4f6b-ba9c-b4178e527b76}; !- Port 1

OS:Sizing:Zone,
  {015d2e4a-1e72-4748-9551-4ee032d6d791}, !- Handle
  {e8ee0f79-aec8-43f7-84c1-c95ed7f01fee}, !- Zone or ZoneList Name
  SupplyAirTemperature,                   !- Zone Cooling Design Supply Air Temperature Input Method
  14,                                     !- Zone Cooling Design Supply Air Temperature {C}
  11.11,                                  !- Zone Cooling Design Supply Air Temperature Difference {deltaC}
  SupplyAirTemperature,                   !- Zone Heating Design Supply Air Temperature Input Method
  40,                                     !- Zone Heating Design Supply Air Temperature {C}
  11.11,                                  !- Zone Heating Design Supply Air Temperature Difference {deltaC}
  0.0085,                                 !- Zone Cooling Design Supply Air Humidity Ratio {kg-H2O/kg-air}
  0.008,                                  !- Zone Heating Design Supply Air Humidity Ratio {kg-H2O/kg-air}
  ,                                       !- Zone Heating Sizing Factor
  ,                                       !- Zone Cooling Sizing Factor
  DesignDay,                              !- Cooling Design Air Flow Method
  ,                                       !- Cooling Design Air Flow Rate {m3/s}
  ,                                       !- Cooling Minimum Air Flow per Zone Floor Area {m3/s-m2}
  ,                                       !- Cooling Minimum Air Flow {m3/s}
  ,                                       !- Cooling Minimum Air Flow Fraction
  DesignDay,                              !- Heating Design Air Flow Method
  ,                                       !- Heating Design Air Flow Rate {m3/s}
  ,                                       !- Heating Maximum Air Flow per Zone Floor Area {m3/s-m2}
  ,                                       !- Heating Maximum Air Flow {m3/s}
  ,                                       !- Heating Maximum Air Flow Fraction
  No,                                     !- Account for Dedicated Outdoor Air System
  NeutralSupplyAir,                       !- Dedicated Outdoor Air System Control Strategy
  autosize,                               !- Dedicated Outdoor Air Low Setpoint Temperature for Design {C}
  autosize,                               !- Dedicated Outdoor Air High Setpoint Temperature for Design {C}
  Sensible Load Only No Latent Load,      !- Zone Load Sizing Method
  HumidityRatioDifference,                !- Zone Latent Cooling Design Supply Air Humidity Ratio Input Method
  ,                                       !- Zone Dehumidification Design Supply Air Humidity Ratio {kgWater/kgDryAir}
  0.005,                                  !- Zone Cooling Design Supply Air Humidity Ratio Difference {kgWater/kgDryAir}
  HumidityRatioDifference,                !- Zone Latent Heating Design Supply Air Humidity Ratio Input Method
  ,                                       !- Zone Humidification Design Supply Air Humidity Ratio {kgWater/kgDryAir}
  0.005,                                  !- Zone Humidification Design Supply Air Humidity Ratio Difference {kgWater/kgDryAir}
  ,                                       !- Zone Humidistat Dehumidification Set Point Schedule Name
  ,                                       !- Zone Humidistat Humidification Set Point Schedule Name
  ,                                       !- Design Zone Air Distribution Effectiveness in Cooling Mode
  ,                                       !- Design Zone Air Distribution Effectiveness in Heating Mode
  ,                                       !- Design Zone Secondary Recirculation Fraction {dimensionless}
  ,                                       !- Design Minimum Zone Ventilation Efficiency {dimensionless}
  Coincident;                             !- Sizing Option

OS:ZoneHVAC:EquipmentList,
  {79f7d26b-0a5f-4dc6-8be6-cb16251771a6}, !- Handle
  Zone HVAC Equipment List 1,             !- Name
  {e8ee0f79-aec8-43f7-84c1-c95ed7f01fee}, !- Thermal Zone
  ,                                       !- Load Distribution Scheme
  {cc068bfe-a6a2-470b-b68e-80851eac3bb8}, !- Zone Equipment 1
  1,                                      !- Zone Equipment Cooling Sequence 1
  1,                                      !- Zone Equipment Heating or No-Load Sequence 1
  {43216746-574c-4a2b-8697-3f8fc5969974}, !- Zone Equipment Sequential Cooling Fraction Schedule Name 1
  {abea372c-3984-4e58-b33d-d7fa55ce7b79}; !- Zone Equipment Sequential Heating Fraction Schedule Name 1

OS:AdditionalProperties,
  {6699ad1d-fd09-4169-844a-86373f5956c2}, !- Handle
  {e8ee0f79-aec8-43f7-84c1-c95ed7f01fee}, !- Object Name
  ObjectType,                             !- Feature Name 1
  String,                                 !- Feature Data Type 1
  conditioned space;                      !- Feature Value 1

OS:Space,
  {69b8de5c-4db8-49be-af29-c080fa5cfee0}, !- Handle
  conditioned space 1,                    !- Name
  ,                                       !- Space Type Name
  ,                                       !- Default Construction Set Name
  ,                                       !- Default Schedule Set Name
  ,                                       !- Direction of Relative North {deg}
  ,                                       !- X Origin {m}
  ,                                       !- Y Origin {m}
  ,                                       !- Z Origin {m}
  ,                                       !- Building Story Name
  {e8ee0f79-aec8-43f7-84c1-c95ed7f01fee}, !- Thermal Zone Name
  ,                                       !- Part of Total Floor Area
  ,                                       !- Design Specification Outdoor Air Object Name
  ,                                       !- Building Unit Name
  692.06373070848;                        !- Volume {m3}

OS:Schedule:Ruleset,
  {cd83bf32-5d3f-4106-9146-3b2d98240c98}, !- Handle
  heating setpoint,                       !- Name
  {9ee1ec2c-95c0-4946-8067-07dd6ffa54a3}, !- Schedule Type Limits Name
  {7b567f5c-5fb7-4a30-9feb-bed6e8baf2a0}; !- Default Day Schedule Name

OS:Schedule:Day,
  {7b567f5c-5fb7-4a30-9feb-bed6e8baf2a0}, !- Handle
  heating setpoint default day,           !- Name
  {9ee1ec2c-95c0-4946-8067-07dd6ffa54a3}, !- Schedule Type Limits Name
  ,                                       !- Interpolate to Timestep
  24,                                     !- Hour 1
  0,                                      !- Minute 1
  0;                                      !- Value Until Time 1

OS:Schedule:Rule,
  {84b19073-b9ff-4179-a649-2b45d1756529}, !- Handle
  heating setpoint allday rule,           !- Name
  {cd83bf32-5d3f-4106-9146-3b2d98240c98}, !- Schedule Ruleset Name
  0,                                      !- Rule Order
  {a3d4c09a-f485-4476-ba53-1c0f3710293f}, !- Day Schedule Name
  Yes,                                    !- Apply Sunday
  Yes,                                    !- Apply Monday
  Yes,                                    !- Apply Tuesday
  Yes,                                    !- Apply Wednesday
  Yes,                                    !- Apply Thursday
  Yes,                                    !- Apply Friday
  Yes,                                    !- Apply Saturday
  DateRange,                              !- Date Specification Type
  1,                                      !- Start Month
  1,                                      !- Start Day
  12,                                     !- End Month
  31;                                     !- End Day

OS:Schedule:Day,
  {a3d4c09a-f485-4476-ba53-1c0f3710293f}, !- Handle
  heating setpoint day,                   !- Name
  {9ee1ec2c-95c0-4946-8067-07dd6ffa54a3}, !- Schedule Type Limits Name
  ,                                       !- Interpolate to Timestep
  24,                                     !- Hour 1
  0,                                      !- Minute 1
  20;                                     !- Value Until Time 1

OS:Schedule:Ruleset,
  {738a75b4-c8a6-43f4-bdb1-3b3027ce1137}, !- Handle
  cooling setpoint,                       !- Name
  {9ee1ec2c-95c0-4946-8067-07dd6ffa54a3}, !- Schedule Type Limits Name
  {86f04c14-5519-4c77-990e-fe03aeca3796}; !- Default Day Schedule Name

OS:Schedule:Day,
  {86f04c14-5519-4c77-990e-fe03aeca3796}, !- Handle
  cooling setpoint default day,           !- Name
  {9ee1ec2c-95c0-4946-8067-07dd6ffa54a3}, !- Schedule Type Limits Name
  ,                                       !- Interpolate to Timestep
  24,                                     !- Hour 1
  0,                                      !- Minute 1
  0;                                      !- Value Until Time 1

OS:Schedule:Rule,
  {b6cc52e6-0d41-4658-b843-7fd88822ade3}, !- Handle
  cooling setpoint allday rule,           !- Name
  {738a75b4-c8a6-43f4-bdb1-3b3027ce1137}, !- Schedule Ruleset Name
  0,                                      !- Rule Order
  {b20135bf-599d-49c5-b8ea-d88fed73359e}, !- Day Schedule Name
  Yes,                                    !- Apply Sunday
  Yes,                                    !- Apply Monday
  Yes,                                    !- Apply Tuesday
  Yes,                                    !- Apply Wednesday
  Yes,                                    !- Apply Thursday
  Yes,                                    !- Apply Friday
  Yes,                                    !- Apply Saturday
  DateRange,                              !- Date Specification Type
  1,                                      !- Start Month
  1,                                      !- Start Day
  12,                                     !- End Month
  31;                                     !- End Day

OS:Schedule:Day,
  {b20135bf-599d-49c5-b8ea-d88fed73359e}, !- Handle
  cooling setpoint day,                   !- Name
  {9ee1ec2c-95c0-4946-8067-07dd6ffa54a3}, !- Schedule Type Limits Name
  ,                                       !- Interpolate to Timestep
  24,                                     !- Hour 1
  0,                                      !- Minute 1
  25.5555555555556;                       !- Value Until Time 1

OS:ThermostatSetpoint:DualSetpoint,
  {b15c87b5-cfe3-4f67-8454-f0a25e02683e}, !- Handle
  conditioned space temperature setpoint, !- Name
  {cd83bf32-5d3f-4106-9146-3b2d98240c98}, !- Heating Setpoint Temperature Schedule Name
  {738a75b4-c8a6-43f4-bdb1-3b3027ce1137}, !- Cooling Setpoint Temperature Schedule Name
  0;                                      !- Temperature Difference Between Cutout And Setpoint {deltaC}

OS:ScheduleTypeLimits,
  {9ee1ec2c-95c0-4946-8067-07dd6ffa54a3}, !- Handle
  Temperature,                            !- Name
  ,                                       !- Lower Limit Value
  ,                                       !- Upper Limit Value
  Continuous,                             !- Numeric Type
  Temperature;                            !- Unit Type

OS:Surface,
  {e9754c31-d81a-445b-9c8a-bb87a0d3cd74}, !- Handle
  Roof1,                                  !- Name
  RoofCeiling,                            !- Surface Type
  {083cf678-540c-41f3-b905-79cf499d514d}, !- Construction Name
  {1c54a185-33e5-4b85-b806-3c6b056ea027}, !- Space Name
  Outdoors,                               !- Outside Boundary Condition
  ,                                       !- Outside Boundary Condition Object
  SunExposed,                             !- Sun Exposure
  WindExposed,                            !- Wind Exposure
  ,                                       !- View Factor to Ground
  ,                                       !- Number of Vertices
  -26.9347048849634, 58.0557891618865, 2.4384, !- X,Y,Z Vertex 1 {m}
  -26.9347048849634, 46.7895631136661, 8.0715130241102, !- X,Y,Z Vertex 2 {m}
  -14.3386812381136, 46.7895631136661, 8.0715130241102, !- X,Y,Z Vertex 3 {m}
  -14.3386812381136, 58.0557891618865, 2.4384; !- X,Y,Z Vertex 4 {m}

OS:AdditionalProperties,
  {d37292f4-b4cd-4165-afd6-121c157f88e3}, !- Handle
  {e9754c31-d81a-445b-9c8a-bb87a0d3cd74}, !- Object Name
  Length,                                 !- Feature Name 1
  Double,                                 !- Feature Data Type 1
  41.325536899113608,                     !- Feature Value 1
  Width,                                  !- Feature Name 2
  Double,                                 !- Feature Data Type 2
  41.325536899113601,                     !- Feature Value 2
  Azimuth,                                !- Feature Name 3
  Integer,                                !- Feature Data Type 3
  0,                                      !- Feature Value 3
  Tilt,                                   !- Feature Name 4
  Double,                                 !- Feature Data Type 4
  0.5,                                    !- Feature Value 4
  SurfaceType,                            !- Feature Name 5
  String,                                 !- Feature Data Type 5
  Roof;                                   !- Feature Value 5

OS:ThermalZone,
  {72dc58a4-7820-41de-aace-ecd435096628}, !- Handle
  attic - vented,                         !- Name
  1,                                      !- Multiplier
  ,                                       !- Ceiling Height {m}
  356.389957095237,                       !- Volume {m3}
  ,                                       !- Floor Area {m2}
  ,                                       !- Zone Inside Convection Algorithm
  ,                                       !- Zone Outside Convection Algorithm
  ,                                       !- Zone Conditioning Equipment List Name
  {55392811-cbd2-4321-bf87-e19b5a81d454}, !- Zone Air Inlet Port List
  {48cd546d-7cb5-41fa-9c6f-f0bd7d230962}, !- Zone Air Exhaust Port List
  {278d16bb-7dca-41a0-82e1-f311b736aebb}, !- Zone Air Node Name
  {3d3fcace-7eee-49b1-90b0-1df55cf377a5}, !- Zone Return Air Port List
  ,                                       !- Primary Daylighting Control Name
  ,                                       !- Fraction of Zone Controlled by Primary Daylighting Control
  ,                                       !- Secondary Daylighting Control Name
  ,                                       !- Fraction of Zone Controlled by Secondary Daylighting Control
  ,                                       !- Illuminance Map Name
  ,                                       !- Group Rendering Name
  ,                                       !- Thermostat Name
  No;                                     !- Use Ideal Air Loads

OS:Node,
  {4638de57-b4d4-48a6-a486-561752adc6ac}, !- Handle
  Node 2,                                 !- Name
  {278d16bb-7dca-41a0-82e1-f311b736aebb}, !- Inlet Port
  ;                                       !- Outlet Port

OS:Connection,
  {278d16bb-7dca-41a0-82e1-f311b736aebb}, !- Handle
  {72dc58a4-7820-41de-aace-ecd435096628}, !- Source Object
  11,                                     !- Outlet Port
  {4638de57-b4d4-48a6-a486-561752adc6ac}, !- Target Object
  2;                                      !- Inlet Port

OS:PortList,
  {55392811-cbd2-4321-bf87-e19b5a81d454}, !- Handle
  {72dc58a4-7820-41de-aace-ecd435096628}; !- HVAC Component

OS:PortList,
  {48cd546d-7cb5-41fa-9c6f-f0bd7d230962}, !- Handle
  {72dc58a4-7820-41de-aace-ecd435096628}; !- HVAC Component

OS:PortList,
  {3d3fcace-7eee-49b1-90b0-1df55cf377a5}, !- Handle
  {72dc58a4-7820-41de-aace-ecd435096628}; !- HVAC Component

OS:Sizing:Zone,
  {d865515e-2bec-449b-b29a-30f5d113af6b}, !- Handle
  {72dc58a4-7820-41de-aace-ecd435096628}, !- Zone or ZoneList Name
  SupplyAirTemperature,                   !- Zone Cooling Design Supply Air Temperature Input Method
  14,                                     !- Zone Cooling Design Supply Air Temperature {C}
  11.11,                                  !- Zone Cooling Design Supply Air Temperature Difference {deltaC}
  SupplyAirTemperature,                   !- Zone Heating Design Supply Air Temperature Input Method
  40,                                     !- Zone Heating Design Supply Air Temperature {C}
  11.11,                                  !- Zone Heating Design Supply Air Temperature Difference {deltaC}
  0.0085,                                 !- Zone Cooling Design Supply Air Humidity Ratio {kg-H2O/kg-air}
  0.008,                                  !- Zone Heating Design Supply Air Humidity Ratio {kg-H2O/kg-air}
  ,                                       !- Zone Heating Sizing Factor
  ,                                       !- Zone Cooling Sizing Factor
  DesignDay,                              !- Cooling Design Air Flow Method
  ,                                       !- Cooling Design Air Flow Rate {m3/s}
  ,                                       !- Cooling Minimum Air Flow per Zone Floor Area {m3/s-m2}
  ,                                       !- Cooling Minimum Air Flow {m3/s}
  ,                                       !- Cooling Minimum Air Flow Fraction
  DesignDay,                              !- Heating Design Air Flow Method
  ,                                       !- Heating Design Air Flow Rate {m3/s}
  ,                                       !- Heating Maximum Air Flow per Zone Floor Area {m3/s-m2}
  ,                                       !- Heating Maximum Air Flow {m3/s}
  ,                                       !- Heating Maximum Air Flow Fraction
  No,                                     !- Account for Dedicated Outdoor Air System
  NeutralSupplyAir,                       !- Dedicated Outdoor Air System Control Strategy
  autosize,                               !- Dedicated Outdoor Air Low Setpoint Temperature for Design {C}
  autosize,                               !- Dedicated Outdoor Air High Setpoint Temperature for Design {C}
  Sensible Load Only No Latent Load,      !- Zone Load Sizing Method
  HumidityRatioDifference,                !- Zone Latent Cooling Design Supply Air Humidity Ratio Input Method
  ,                                       !- Zone Dehumidification Design Supply Air Humidity Ratio {kgWater/kgDryAir}
  0.005,                                  !- Zone Cooling Design Supply Air Humidity Ratio Difference {kgWater/kgDryAir}
  HumidityRatioDifference,                !- Zone Latent Heating Design Supply Air Humidity Ratio Input Method
  ,                                       !- Zone Humidification Design Supply Air Humidity Ratio {kgWater/kgDryAir}
  0.005,                                  !- Zone Humidification Design Supply Air Humidity Ratio Difference {kgWater/kgDryAir}
  ,                                       !- Zone Humidistat Dehumidification Set Point Schedule Name
  ,                                       !- Zone Humidistat Humidification Set Point Schedule Name
  ,                                       !- Design Zone Air Distribution Effectiveness in Cooling Mode
  ,                                       !- Design Zone Air Distribution Effectiveness in Heating Mode
  ,                                       !- Design Zone Secondary Recirculation Fraction {dimensionless}
  ,                                       !- Design Minimum Zone Ventilation Efficiency {dimensionless}
  Coincident;                             !- Sizing Option

OS:ZoneHVAC:EquipmentList,
  {2c6dba79-12ae-44f1-a36d-3c4b7787350c}, !- Handle
  Zone HVAC Equipment List 2,             !- Name
  {72dc58a4-7820-41de-aace-ecd435096628}; !- Thermal Zone

OS:AdditionalProperties,
  {685ddaf3-a14a-4574-a068-35ed676d9963}, !- Handle
  {72dc58a4-7820-41de-aace-ecd435096628}, !- Object Name
  ObjectType,                             !- Feature Name 1
  String,                                 !- Feature Data Type 1
  attic - vented;                         !- Feature Value 1

OS:Space,
  {1c54a185-33e5-4b85-b806-3c6b056ea027}, !- Handle
  attic - vented 1,                       !- Name
  ,                                       !- Space Type Name
  ,                                       !- Default Construction Set Name
  ,                                       !- Default Schedule Set Name
  ,                                       !- Direction of Relative North {deg}
  ,                                       !- X Origin {m}
  ,                                       !- Y Origin {m}
  ,                                       !- Z Origin {m}
  ,                                       !- Building Story Name
  {72dc58a4-7820-41de-aace-ecd435096628}, !- Thermal Zone Name
  ,                                       !- Part of Total Floor Area
  ,                                       !- Design Specification Outdoor Air Object Name
  ,                                       !- Building Unit Name
  356.389957095237;                       !- Volume {m3}

OS:Material,
  {19c2d2f3-b204-498c-9e17-500598a89b0e}, !- Handle
  asphalt or fiberglass shingles,         !- Name
  Rough,                                  !- Roughness
  0.00635,                                !- Thickness {m}
  0.162714,                               !- Conductivity {W/m-K}
  1121.4,                                 !- Density {kg/m3}
  1465.45,                                !- Specific Heat {J/kg-K}
  0.9,                                    !- Thermal Absorptance
  0.85,                                   !- Solar Absorptance