
OS:Version,
  {2904f8bc-a37d-468f-854a-55b3f2fb2be9}, !- Handle
  3.10.0;                                 !- Version Identifier

OS:SimulationControl,
  {f34be07c-a288-46d6-bf1a-674b03c7f45e}, !- Handle
  ,                                       !- Do Zone Sizing Calculation
  ,                                       !- Do System Sizing Calculation
  ,                                       !- Do Plant Sizing Calculation
  No;                                     !- Run Simulation for Sizing Periods

OS:Timestep,
  {b34c0b3f-7021-46fc-97ff-6915cb55feb5}, !- Handle
  1;                                      !- Number of Timesteps per Hour

OS:ShadowCalculation,
  {0542fe1e-9d90-44c2-acd7-2f1e9f00b7c3}, !- Handle
  PolygonClipping,                        !- Shading Calculation Method
  ,                                       !- Shading Calculation Update Frequency Method
  20,                                     !- Shading Calculation Update Frequency
  200,                                    !- Maximum Figures in Shadow Overlap Calculations
  ,                                       !- Polygon Clipping Algorithm
  512,                                    !- Pixel Counting Resolution
  ,                                       !- Sky Diffuse Modeling Algorithm
  No,                                     !- Output External Shading Calculation Results
  No,                                     !- Disable Self-Shading Within Shading Zone Groups
  No;                                     !- Disable Self-Shading From Shading Zone Groups to Other Zones

OS:SurfaceConvectionAlgorithm:Outside,
  {6b753a4c-52fb-4356-b3da-a74c52089c5c}, !- Handle
  DOE-2;                                  !- Algorithm

OS:SurfaceConvectionAlgorithm:Inside,
  {13f8d6a4-ac29-4249-9103-de744e26243e}, !- Handle
  TARP;                                   !- Algorithm

OS:ZoneCapacitanceMultiplier:ResearchSpecial,
  {8abbce5e-ee8e-4021-90fa-611f502f7f09}, !- Handle
  7,                                      !- Temperature Capacity Multiplier
  15,                                     !- Humidity Capacity Multiplier
  ;                                       !- Carbon Dioxide Capacity Multiplier

OS:ConvergenceLimits,
  {1b0d128e-176f-41bb-a3ad-94a332dd9e6c}, !- Handle
  0;                                      !- Minimum System Timestep {minutes}

OS:RunPeriod,
  {3c8e7fae-e8c5-4106-ad10-9132bcf14f9e}, !- Handle
  Run Period 1,                           !- Name
  1,                                      !- Begin Month
  1,                                      !- Begin Day of Month
  12,                                     !- End Month
  31,                                     !- End Day of Month
  ,                                       !- Use Weather File Holidays and Special Days
  ,                                       !- Use Weather File Daylight Saving Period
  ,                                       !- Apply Weekend Holiday Rule
  ,                                       !- Use Weather File Rain Indicators
  ,                                       !- Use Weather File Snow Indicators
  ;                                       !- Number of Times Runperiod to be Repeated

OS:PerformancePrecisionTradeoffs,
  {19f67a3f-bb41-457f-9de1-dfdf5052e321}, !- Handle
  ,                                       !- Use Coil Direct Solutions
  CarrollMRT;                             !- Zone Radiant Exchange Algorithm

OS:WeatherFile,
  {05d53710-3e3d-4698-a8c7-feb72b912707}, !- Handle
  Buffalo Niagara Intl Ap,                !- City
  NY,                                     !- State Province Region
  USA,                                    !- Country
  TMY3,                                   !- Data Source
  725280,                                 !- WMO Number
  42.93,                                  !- Latitude {deg}
  -78.73,                                 !- Longitude {deg}
  -5,                                     !- Time Zone {hr}
  215,                                    !- Elevation {m}
  /Users/nmoore/github/urbanopt-example-geojson-project/example_project/weather/USA_NY_Buffalo-Greater.Buffalo.Intl.AP.725280_TMY3.epw, !- Url
  6B50E0FF,                               !- Checksum
  ,                                       !- Start Date Actual Year
  Sunday;                                 !- Start Day of Week

OS:YearDescription,
  {e7df7643-dbc8-46fa-bab2-87817ef8877c}, !- Handle
  2007,                                   !- Calendar Year
  ,                                       !- Day of Week for Start Day
  ;                                       !- Is Leap Year

OS:Site,
  {56f4e573-adde-44d1-a9fe-993e7e4f24e7}, !- Handle
  Buffalo Niagara Intl Ap_NY,             !- Name
  42.93,                                  !- Latitude {deg}
  -78.73,                                 !- Longitude {deg}
  -5,                                     !- Time Zone {hr}
  215,                                    !- Elevation {m}
  Suburbs,                                !- Terrain
  Yes;                                    !- Keep Site Location Information

OS:RunPeriodControl:DaylightSavingTime,
  {27d6ff38-6d5b-47c4-8aa7-f68df239f505}, !- Handle
  Mar 12,                                 !- Start Date
  Nov 5;                                  !- End Date

OS:Site:GroundTemperature:Shallow,
  {5b99b9e9-12fb-41f5-b454-2047bf5e563e}, !- Handle
  4.30207395723828,                       !- January Surface Ground Temperature {C}
  2.29327249652502,                       !- February Surface Ground Temperature {C}
  2.13240047156047,                       !- March Surface Ground Temperature {C}
  3.08567940719286,                       !- April Surface Ground Temperature {C}
  6.91256312497526,                       !- May Surface Ground Temperature {C}
  10.7216195949507,                       !- June Surface Ground Temperature {C}
  14.0238679822574,                       !- July Surface Ground Temperature {C}
  16.1157611184724,                       !- August Surface Ground Temperature {C}
  16.2934789303462,                       !- September Surface Ground Temperature {C}
  14.5920754632847,                       !- October Surface Ground Temperature {C}
  11.374036348653,                        !- November Surface Ground Temperature {C}
  7.68182621661674;                       !- December Surface Ground Temperature {C}

OS:ThermalZone,
  {e91e3067-1506-4f28-832d-3915f144228a}, !- Handle
  conditioned space,                      !- Name
  1,                                      !- Multiplier
  ,                                       !- Ceiling Height {m}
  692.06373070848,                        !- Volume {m3}
  ,                                       !- Floor Area {m2}
  ,                                       !- Zone Inside Convection Algorithm
  ,                                       !- Zone Outside Convection Algorithm
  ,                                       !- Zone Conditioning Equipment List Name
  {00621fff-27f1-495f-98de-bcc0f33c0f0c}, !- Zone Air Inlet Port List
  {dde73ec1-5992-4f4b-827f-a15305ff22ef}, !- Zone Air Exhaust Port List
  {1fbbba18-3671-4eb2-85ff-afdd79b522a8}, !- Zone Air Node Name
  {2ca0642d-ec53-4a94-b6ee-085137b8a14b}, !- Zone Return Air Port List
  ,                                       !- Primary Daylighting Control Name
  ,                                       !- Fraction of Zone Controlled by Primary Daylighting Control
  ,                                       !- Secondary Daylighting Control Name
  ,                                       !- Fraction of Zone Controlled by Secondary Daylighting Control
  ,                                       !- Illuminance Map Name
  ,                                       !- Group Rendering Name
  {f0525c59-fa4e-409e-ba07-c2bd64321556}, !- Thermostat Name
  No;                                     !- Use Ideal Air Loads

OS:Node,
  {fad82c41-c399-450a-b240-24e529bba8c9}, !- Handle
  Node 1,                                 !- Name
  {1fbbba18-3671-4eb2-85ff-afdd79b522a8}, !- Inlet Port
  ;                                       !- Outlet Port

OS:Connection,
  {1fbbba18-3671-4eb2-85ff-afdd79b522a8}, !- Handle
  {e91e3067-1506-4f28-832d-3915f144228a}, !- Source Object
  11,                                     !- Outlet Port
  {fad82c41-c399-450a-b240-24e529bba8c9}, !- Target Object
  2;                                      !- Inlet Port

OS:PortList,
  {00621fff-27f1-495f-98de-bcc0f33c0f0c}, !- Handle
  {e91e3067-1506-4f28-832d-3915f144228a}, !- HVAC Component
  {4e74c271-3ef8-48d5-8bca-01789e7a5152}; !- Port 1

OS:PortList,
  {dde73ec1-5992-4f4b-827f-a15305ff22ef}, !- Handle
  {e91e3067-1506-4f28-832d-3915f144228a}; !- HVAC Component

OS:PortList,
  {2ca0642d-ec53-4a94-b6ee-085137b8a14b}, !- Handle
  {e91e3067-1506-4f28-832d-3915f144228a}, !- HVAC Component
  {74e71fb1-2bdb-4038-a3c8-65d3ee8dd5fb}; !- Port 1

OS:Sizing:Zone,
  {5a4b0203-869a-4282-b27b-2b6125cfec13}, !- Handle
  {e91e3067-1506-4f28-832d-3915f144228a}, !- Zone or ZoneList Name
  SupplyAirTemperature,                   !- Zone Cooling Design Supply Air Temperature Input Method
  14,                                     !- Zone Cooling Design Supply Air Temperature {C}
  11.11,                                  !- Zone Cooling Design Supply Air Temperature Difference {deltaC}
  SupplyAirTemperature,                   !- Zone Heating Design Supply Air Temperature Input Method
  40,                                     !- Zone Heating Design Supply Air Temperature {C}
  11.11,                                  !- Zone Heating Design Supply Air Temperature Difference {deltaC}
  0.0085,                                 !- Zone Cooling Design Supply Air Humidity Ratio {kg-H2O/kg-air}
  0.008,                                  !- Zone Heating Design Supply Air Humidity Ratio {kg-H2O/kg-air}
  ,                                       !- Zone Heating Sizing Factor
  ,                                       !- Zone Cooling Sizing Factor
  DesignDay,                              !- Cooling Design Air Flow Method
  ,                                       !- Cooling Design Air Flow Rate {m3/s}
  ,                                       !- Cooling Minimum Air Flow per Zone Floor Area {m3/s-m2}
  ,                                       !- Cooling Minimum Air Flow {m3/s}
  ,                                       !- Cooling Minimum Air Flow Fraction
  DesignDay,                              !- Heating Design Air Flow Method
  ,                                       !- Heating Design Air Flow Rate {m3/s}
  ,                                       !- Heating Maximum Air Flow per Zone Floor Area {m3/s-m2}
  ,                                       !- Heating Maximum Air Flow {m3/s}
  ,                                       !- Heating Maximum Air Flow Fraction
  No,                                     !- Account for Dedicated Outdoor Air System
  NeutralSupplyAir,                       !- Dedicated Outdoor Air System Control Strategy
  autosize,                               !- Dedicated Outdoor Air Low Setpoint Temperature for Design {C}
  autosize,                               !- Dedicated Outdoor Air High Setpoint Temperature for Design {C}
  Sensible Load Only No Latent Load,      !- Zone Load Sizing Method
  HumidityRatioDifference,                !- Zone Latent Cooling Design Supply Air Humidity Ratio Input Method
  ,                                       !- Zone Dehumidification Design Supply Air Humidity Ratio {kgWater/kgDryAir}
  0.005,                                  !- Zone Cooling Design Supply Air Humidity Ratio Difference {kgWater/kgDryAir}
  HumidityRatioDifference,                !- Zone Latent Heating Design Supply Air Humidity Ratio Input Method
  ,                                       !- Zone Humidification Design Supply Air Humidity Ratio {kgWater/kgDryAir}
  0.005,                                  !- Zone Humidification Design Supply Air Humidity Ratio Difference {kgWater/kgDryAir}
  ,                                       !- Zone Humidistat Dehumidification Set Point Schedule Name
  ,                                       !- Zone Humidistat Humidification Set Point Schedule Name
  ,                                       !- Design Zone Air Distribution Effectiveness in Cooling Mode
  ,                                       !- Design Zone Air Distribution Effectiveness in Heating Mode
  ,                                       !- Design Zone Secondary Recirculation Fraction {dimensionless}
  ,                                       !- Design Minimum Zone Ventilation Efficiency {dimensionless}
  Coincident;                             !- Sizing Option

OS:ZoneHVAC:EquipmentList,
  {775246cd-c813-4055-afb8-3fd74fdb7179}, !- Handle
  Zone HVAC Equipment List 1,             !- Name
  {e91e3067-1506-4f28-832d-3915f144228a}, !- Thermal Zone
  ,                                       !- Load Distribution Scheme
  {180bcfc1-e2f1-405a-8a58-bd24afdedea3}, !- Zone Equipment 1
  1,                                      !- Zone Equipment Cooling Sequence 1
  1,                                      !- Zone Equipment Heating or No-Load Sequence 1
  {dba378f9-6284-4122-bc65-47e2cba18ece}, !- Zone Equipment Sequential Cooling Fraction Schedule Name 1
  {2823eaa5-378d-4738-b4d5-7851008b3da0}; !- Zone Equipment Sequential Heating Fraction Schedule Name 1

OS:AdditionalProperties,
  {17d8ac42-73ec-4633-b3c1-15e450ba8670}, !- Handle
  {e91e3067-1506-4f28-832d-3915f144228a}, !- Object Name
  ObjectType,                             !- Feature Name 1
  String,                                 !- Feature Data Type 1
  conditioned space;                      !- Feature Value 1

OS:Space,
  {bbc01557-4b8f-4db7-8699-793c3eff95d2}, !- Handle
  conditioned space 1,                    !- Name
  ,                                       !- Space Type Name
  ,                                       !- Default Construction Set Name
  ,                                       !- Default Schedule Set Name
  ,                                       !- Direction of Relative North {deg}
  ,                                       !- X Origin {m}
  ,                                       !- Y Origin {m}
  ,                                       !- Z Origin {m}
  ,                                       !- Building Story Name
  {e91e3067-1506-4f28-832d-3915f144228a}, !- Thermal Zone Name
  ,                                       !- Part of Total Floor Area
  ,                                       !- Design Specification Outdoor Air Object Name
  ,                                       !- Building Unit Name
  692.06373070848;                        !- Volume {m3}

OS:Schedule:Ruleset,
  {0a046816-de30-4a93-97e0-f1bf8ef439fa}, !- Handle
  heating setpoint,                       !- Name
  {8f6c1bca-b599-42fe-a22c-2bb2a5ee2e4a}, !- Schedule Type Limits Name
  {4c85b67e-e5c7-436d-a3dc-216208aaaaf5}; !- Default Day Schedule Name

OS:Schedule:Day,
  {4c85b67e-e5c7-436d-a3dc-216208aaaaf5}, !- Handle
  heating setpoint default day,           !- Name
  {8f6c1bca-b599-42fe-a22c-2bb2a5ee2e4a}, !- Schedule Type Limits Name
  ,                                       !- Interpolate to Timestep
  24,                                     !- Hour 1
  0,                                      !- Minute 1
  0;                                      !- Value Until Time 1

OS:Schedule:Rule,
  {522e7d61-1eea-4414-b588-72639597a8ed}, !- Handle
  heating setpoint allday rule,           !- Name
  {0a046816-de30-4a93-97e0-f1bf8ef439fa}, !- Schedule Ruleset Name
  0,                                      !- Rule Order
  {c153217b-13c7-4999-add7-c21a39997368}, !- Day Schedule Name
  Yes,                                    !- Apply Sunday
  Yes,                                    !- Apply Monday
  Yes,                                    !- Apply Tuesday
  Yes,                                    !- Apply Wednesday
  Yes,                                    !- Apply Thursday
  Yes,                                    !- Apply Friday
  Yes,                                    !- Apply Saturday
  DateRange,                              !- Date Specification Type
  1,                                      !- Start Month
  1,                                      !- Start Day
  12,                                     !- End Month
  31;                                     !- End Day

OS:Schedule:Day,
  {c153217b-13c7-4999-add7-c21a39997368}, !- Handle
  heating setpoint day,                   !- Name
  {8f6c1bca-b599-42fe-a22c-2bb2a5ee2e4a}, !- Schedule Type Limits Name
  ,                                       !- Interpolate to Timestep
  24,                                     !- Hour 1
  0,                                      !- Minute 1
  20;                                     !- Value Until Time 1

OS:Schedule:Ruleset,
  {36e124ff-ba8d-483e-b789-4bef73b953a3}, !- Handle
  cooling setpoint,                       !- Name
  {8f6c1bca-b599-42fe-a22c-2bb2a5ee2e4a}, !- Schedule Type Limits Name
  {565b0e58-c073-46d7-8120-227cd51f2655}; !- Default Day Schedule Name

OS:Schedule:Day,
  {565b0e58-c073-46d7-8120-227cd51f2655}, !- Handle
  cooling setpoint default day,           !- Name
  {8f6c1bca-b599-42fe-a22c-2bb2a5ee2e4a}, !- Schedule Type Limits Name
  ,                                       !- Interpolate to Timestep
  24,                                     !- Hour 1
  0,                                      !- Minute 1
  0;                                      !- Value Until Time 1

OS:Schedule:Rule,
  {be1f2314-64d5-47e1-a1b0-f92af4513597}, !- Handle
  cooling setpoint allday rule,           !- Name
  {36e124ff-ba8d-483e-b789-4bef73b953a3}, !- Schedule Ruleset Name
  0,                                      !- Rule Order
  {fcad4b58-16a1-45c5-b8b4-9bc8977a9b0e}, !- Day Schedule Name
  Yes,                                    !- Apply Sunday
  Yes,                                    !- Apply Monday
  Yes,                                    !- Apply Tuesday
  Yes,                                    !- Apply Wednesday
  Yes,                                    !- Apply Thursday
  Yes,                                    !- Apply Friday
  Yes,                                    !- Apply Saturday
  DateRange,                              !- Date Specification Type
  1,                                      !- Start Month
  1,                                      !- Start Day
  12,                                     !- End Month
  31;                                     !- End Day

OS:Schedule:Day,
  {fcad4b58-16a1-45c5-b8b4-9bc8977a9b0e}, !- Handle
  cooling setpoint day,                   !- Name
  {8f6c1bca-b599-42fe-a22c-2bb2a5ee2e4a}, !- Schedule Type Limits Name
  ,                                       !- Interpolate to Timestep
  24,                                     !- Hour 1
  0,                                      !- Minute 1
  25.5555555555556;                       !- Value Until Time 1

OS:ThermostatSetpoint:DualSetpoint,
  {f0525c59-fa4e-409e-ba07-c2bd64321556}, !- Handle
  conditioned space temperature setpoint, !- Name
  {0a046816-de30-4a93-97e0-f1bf8ef439fa}, !- Heating Setpoint Temperature Schedule Name
  {36e124ff-ba8d-483e-b789-4bef73b953a3}, !- Cooling Setpoint Temperature Schedule Name
  0;                                      !- Temperature Difference Between Cutout And Setpoint {deltaC}

OS:ScheduleTypeLimits,
  {8f6c1bca-b599-42fe-a22c-2bb2a5ee2e4a}, !- Handle
  Temperature,                            !- Name
  ,                                       !- Lower Limit Value
  ,                                       !- Upper Limit Value
  Continuous,                             !- Numeric Type
  Temperature;                            !- Unit Type

OS:Surface,
  {c11df813-cc64-44dd-b914-f8308c0dd7e9}, !- Handle
  Roof1,                                  !- Name
  RoofCeiling,                            !- Surface Type
  {1c749c7e-c3a4-4f15-9674-727006819c09}, !- Construction Name
  {91f4f196-920c-4ba7-b7fd-7712754444f0}, !- Space Name
  Outdoors,                               !- Outside Boundary Condition
  ,                                       !- Outside Boundary Condition Object
  SunExposed,                             !- Sun Exposure
  WindExposed,                            !- Wind Exposure
  ,                                       !- View Factor to Ground
  ,                                       !- Number of Vertices
  -26.9347048849634, 58.0557891618865, 2.4384, !- X,Y,Z Vertex 1 {m}
  -26.9347048849634, 46.7895631136661, 8.0715130241102, !- X,Y,Z Vertex 2 {m}
  -14.3386812381136, 46.7895631136661, 8.0715130241102, !- X,Y,Z Vertex 3 {m}
  -14.3386812381136, 58.0557891618865, 2.4384; !- X,Y,Z Vertex 4 {m}

OS:AdditionalProperties,
  {f187298a-40c9-438b-9fe1-f7b8fd348ac8}, !- Handle
  {c11df813-cc64-44dd-b914-f8308c0dd7e9}, !- Object Name
  Length,                                 !- Feature Name 1
  Double,                                 !- Feature Data Type 1
  41.325536899113608,                     !- Feature Value 1
  Width,                                  !- Feature Name 2
  Double,                                 !- Feature Data Type 2
  41.325536899113601,                     !- Feature Value 2
  Azimuth,                                !- Feature Name 3
  Integer,                                !- Feature Data Type 3
  0,                                      !- Feature Value 3
  Tilt,                                   !- Feature Name 4
  Double,                                 !- Feature Data Type 4
  0.5,                                    !- Feature Value 4
  SurfaceType,                            !- Feature Name 5
  String,                                 !- Feature Data Type 5
  Roof;                                   !- Feature Value 5

OS:ThermalZone,
  {7a8d3e57-3e9b-4d3b-878c-a678239cd70e}, !- Handle
  attic - vented,                         !- Name
  1,                                      !- Multiplier
  ,                                       !- Ceiling Height {m}
  356.390921899745,                       !- Volume {m3}
  ,                                       !- Floor Area {m2}
  ,                                       !- Zone Inside Convection Algorithm
  ,                                       !- Zone Outside Convection Algorithm
  ,                                       !- Zone Conditioning Equipment List Name
  {68786876-5f05-407c-9fc8-2f49e73b3ee6}, !- Zone Air Inlet Port List
  {6c6399bb-e138-46cd-9092-d7a76ca09729}, !- Zone Air Exhaust Port List
  {5cf0c382-c093-42a0-8bbe-9f3b7131d681}, !- Zone Air Node Name
  {134622ff-3a69-4987-8799-ec9d13ec491a}, !- Zone Return Air Port List
  ,                                       !- Primary Daylighting Control Name
  ,                                       !- Fraction of Zone Controlled by Primary Daylighting Control
  ,                                       !- Secondary Daylighting Control Name
  ,                                       !- Fraction of Zone Controlled by Secondary Daylighting Control
  ,                                       !- Illuminance Map Name
  ,                                       !- Group Rendering Name
  ,                                       !- Thermostat Name
  No;                                     !- Use Ideal Air Loads

OS:Node,
  {2f49d356-6010-46f0-a3e5-b2996b7dca81}, !- Handle
  Node 2,                                 !- Name
  {5cf0c382-c093-42a0-8bbe-9f3b7131d681}, !- Inlet Port
  ;                                       !- Outlet Port

OS:Connection,
  {5cf0c382-c093-42a0-8bbe-9f3b7131d681}, !- Handle
  {7a8d3e57-3e9b-4d3b-878c-a678239cd70e}, !- Source Object
  11,                                     !- Outlet Port
  {2f49d356-6010-46f0-a3e5-b2996b7dca81}, !- Target Object
  2;                                      !- Inlet Port

OS:PortList,
  {68786876-5f05-407c-9fc8-2f49e73b3ee6}, !- Handle
  {7a8d3e57-3e9b-4d3b-878c-a678239cd70e}; !- HVAC Component

OS:PortList,
  {6c6399bb-e138-46cd-9092-d7a76ca09729}, !- Handle
  {7a8d3e57-3e9b-4d3b-878c-a678239cd70e}; !- HVAC Component

OS:PortList,
  {134622ff-3a69-4987-8799-ec9d13ec491a}, !- Handle
  {7a8d3e57-3e9b-4d3b-878c-a678239cd70e}; !- HVAC Component

OS:Sizing:Zone,
  {641bb414-ccf7-4204-a042-ec82b44bfa82}, !- Handle
  {7a8d3e57-3e9b-4d3b-878c-a678239cd70e}, !- Zone or ZoneList Name
  SupplyAirTemperature,                   !- Zone Cooling Design Supply Air Temperature Input Method
  14,                                     !- Zone Cooling Design Supply Air Temperature {C}
  11.11,                                  !- Zone Cooling Design Supply Air Temperature Difference {deltaC}
  SupplyAirTemperature,                   !- Zone Heating Design Supply Air Temperature Input Method
  40,                                     !- Zone Heating Design Supply Air Temperature {C}
  11.11,                                  !- Zone Heating Design Supply Air Temperature Difference {deltaC}
  0.0085,                                 !- Zone Cooling Design Supply Air Humidity Ratio {kg-H2O/kg-air}
  0.008,                                  !- Zone Heating Design Supply Air Humidity Ratio {kg-H2O/kg-air}
  ,                                       !- Zone Heating Sizing Factor
  ,                                       !- Zone Cooling Sizing Factor
  DesignDay,                              !- Cooling Design Air Flow Method
  ,                                       !- Cooling Design Air Flow Rate {m3/s}
  ,                                       !- Cooling Minimum Air Flow per Zone Floor Area {m3/s-m2}
  ,                                       !- Cooling Minimum Air Flow {m3/s}
  ,                                       !- Cooling Minimum Air Flow Fraction
  DesignDay,                              !- Heating Design Air Flow Method
  ,                                       !- Heating Design Air Flow Rate {m3/s}
  ,                                       !- Heating Maximum Air Flow per Zone Floor Area {m3/s-m2}
  ,                                       !- Heating Maximum Air Flow {m3/s}
  ,                                       !- Heating Maximum Air Flow Fraction
  No,                                     !- Account for Dedicated Outdoor Air System
  NeutralSupplyAir,                       !- Dedicated Outdoor Air System Control Strategy
  autosize,                               !- Dedicated Outdoor Air Low Setpoint Temperature for Design {C}
  autosize,                               !- Dedicated Outdoor Air High Setpoint Temperature for Design {C}
  Sensible Load Only No Latent Load,      !- Zone Load Sizing Method
  HumidityRatioDifference,                !- Zone Latent Cooling Design Supply Air Humidity Ratio Input Method
  ,                                       !- Zone Dehumidification Design Supply Air Humidity Ratio {kgWater/kgDryAir}
  0.005,                                  !- Zone Cooling Design Supply Air Humidity Ratio Difference {kgWater/kgDryAir}
  HumidityRatioDifference,                !- Zone Latent Heating Design Supply Air Humidity Ratio Input Method
  ,                                       !- Zone Humidification Design Supply Air Humidity Ratio {kgWater/kgDryAir}
  0.005,                                  !- Zone Humidification Design Supply Air Humidity Ratio Difference {kgWater/kgDryAir}
  ,                                       !- Zone Humidistat Dehumidification Set Point Schedule Name
  ,                                       !- Zone Humidistat Humidification Set Point Schedule Name
  ,                                       !- Design Zone Air Distribution Effectiveness in Cooling Mode
  ,                                       !- Design Zone Air Distribution Effectiveness in Heating Mode
  ,                                       !- Design Zone Secondary Recirculation Fraction {dimensionless}
  ,                                       !- Design Minimum Zone Ventilation Efficiency {dimensionless}
  Coincident;                             !- Sizing Option

OS:ZoneHVAC:EquipmentList,
  {383e825c-93d7-497f-ae88-acb4fe86285f}, !- Handle
  Zone HVAC Equipment List 2,             !- Name
  {7a8d3e57-3e9b-4d3b-878c-a678239cd70e}; !- Thermal Zone

OS:AdditionalProperties,
  {37523f1d-b920-400d-80ad-c63cd6d23497}, !- Handle
  {7a8d3e57-3e9b-4d3b-878c-a678239cd70e}, !- Object Name
  ObjectType,                             !- Feature Name 1
  String,                                 !- Feature Data Type 1
  attic - vented;                         !- Feature Value 1

OS:Space,
  {91f4f196-920c-4ba7-b7fd-7712754444f0}, !- Handle
  attic - vented 1,                       !- Name
  ,                                       !- Space Type Name
  ,                                       !- Default Construction Set Name
  ,                                       !- Default Schedule Set Name
  ,                                       !- Direction of Relative North {deg}
  ,                                       !- X Origin {m}
  ,                                       !- Y Origin {m}
  ,                                       !- Z Origin {m}
  ,                                       !- Building Story Name
  {7a8d3e57-3e9b-4d3b-878c-a678239cd70e}, !- Thermal Zone Name
  ,                                       !- Part of Total Floor Area
  ,                                       !- Design Specification Outdoor Air Object Name
  ,                                       !- Building Unit Name
  356.390921899745;                       !- Volume {m3}

OS:Material,
  {4124c401-84fb-4a99-86ab-5e58094579b9}, !- Handle
  asphalt or fiberglass shingles,         !- Name
  Rough,                                  !- Roughness
  0.00635,                                !- Thickness {m}
  0.162714,                               !- Conductivity {W/m-K}
  1121.4,                                 !- Density {kg/m3}
  1465.45,                                !- Specific Heat {J/kg-K}
  0.9,                                    !- Thermal Absorptance
  0.85,                                   !- Solar Absorptance