
OS:Version,
  {f850e23a-fbf2-4288-a014-11cef211afc3}, !- Handle
  3.9.0;                                  !- Version Identifier

OS:SimulationControl,
  {70162801-dcc7-496f-a7a9-446cb3db9454}, !- Handle
  ,                                       !- Do Zone Sizing Calculation
  ,                                       !- Do System Sizing Calculation
  ,                                       !- Do Plant Sizing Calculation
  No;                                     !- Run Simulation for Sizing Periods

OS:Timestep,
  {b9197683-c36b-4609-af42-d67fc7488b2b}, !- Handle
  1;                                      !- Number of Timesteps per Hour

OS:ShadowCalculation,
  {95a07526-d827-430e-a1dc-360907553de2}, !- Handle
  PolygonClipping,                        !- Shading Calculation Method
  ,                                       !- Shading Calculation Update Frequency Method
  20,                                     !- Shading Calculation Update Frequency
  200,                                    !- Maximum Figures in Shadow Overlap Calculations
  ,                                       !- Polygon Clipping Algorithm
  512,                                    !- Pixel Counting Resolution
  ,                                       !- Sky Diffuse Modeling Algorithm
  No,                                     !- Output External Shading Calculation Results
  No,                                     !- Disable Self-Shading Within Shading Zone Groups
  No;                                     !- Disable Self-Shading From Shading Zone Groups to Other Zones

OS:SurfaceConvectionAlgorithm:Outside,
  {1cc370ab-c486-4988-bf8b-4c6c180eb8e9}, !- Handle
  DOE-2;                                  !- Algorithm

OS:SurfaceConvectionAlgorithm:Inside,
  {daec813a-f894-4f87-aa7c-06c6f24ef58d}, !- Handle
  TARP;                                   !- Algorithm

OS:ZoneCapacitanceMultiplier:ResearchSpecial,
  {ab378bc3-f7b3-4d65-927b-7ef87f96388e}, !- Handle
  7,                                      !- Temperature Capacity Multiplier
  15,                                     !- Humidity Capacity Multiplier
  ;                                       !- Carbon Dioxide Capacity Multiplier

OS:ConvergenceLimits,
  {e336e155-1a2d-42af-a796-bdfe6398a804}, !- Handle
  0;                                      !- Minimum System Timestep {minutes}

OS:RunPeriod,
  {98b30ebb-a450-4e2e-b080-35cfb1694e01}, !- Handle
  Run Period 1,                           !- Name
  1,                                      !- Begin Month
  1,                                      !- Begin Day of Month
  12,                                     !- End Month
  31,                                     !- End Day of Month
  ,                                       !- Use Weather File Holidays and Special Days
  ,                                       !- Use Weather File Daylight Saving Period
  ,                                       !- Apply Weekend Holiday Rule
  ,                                       !- Use Weather File Rain Indicators
  ,                                       !- Use Weather File Snow Indicators
  ;                                       !- Number of Times Runperiod to be Repeated

OS:PerformancePrecisionTradeoffs,
  {9a74f265-52da-4e70-ace6-44cee89060ce}, !- Handle
  ,                                       !- Use Coil Direct Solutions
  CarrollMRT;                             !- Zone Radiant Exchange Algorithm

OS:WeatherFile,
  {edac0b5e-2c86-40c8-a742-4c8baadd6141}, !- Handle
  Buffalo Niagara Intl Ap,                !- City
  NY,                                     !- State Province Region
  USA,                                    !- Country
  TMY3,                                   !- Data Source
  725280,                                 !- WMO Number
  42.93,                                  !- Latitude {deg}
  -78.73,                                 !- Longitude {deg}
  -5,                                     !- Time Zone {hr}
  215,                                    !- Elevation {m}
  /Users/nmoore/github/urbanopt-example-geojson-project/example_project/weather/USA_NY_Buffalo-Greater.Buffalo.Intl.AP.725280_TMY3.epw, !- Url
  6B50E0FF,                               !- Checksum
  ,                                       !- Start Date Actual Year
  Sunday;                                 !- Start Day of Week

OS:YearDescription,
  {338673e0-1d30-4d30-8edd-9e8d07e3fd54}, !- Handle
  2007,                                   !- Calendar Year
  ,                                       !- Day of Week for Start Day
  ;                                       !- Is Leap Year

OS:Site,
  {3d7d8a0b-b240-4761-87d1-f3cb0e2d7194}, !- Handle
  Buffalo Niagara Intl Ap_NY,             !- Name
  42.93,                                  !- Latitude {deg}
  -78.73,                                 !- Longitude {deg}
  -5,                                     !- Time Zone {hr}
  215,                                    !- Elevation {m}
  Suburbs,                                !- Terrain
  Yes;                                    !- Keep Site Location Information

OS:RunPeriodControl:DaylightSavingTime,
  {8853f41f-f75e-44aa-b3e4-4dd9a80798bf}, !- Handle
  Mar 12,                                 !- Start Date
  Nov 5;                                  !- End Date

OS:Site:GroundTemperature:Shallow,
  {7c3d8e98-e50e-49e6-9ad8-6cc1b299803c}, !- Handle
  4.30207395723828,                       !- January Surface Ground Temperature {C}
  2.29327249652502,                       !- February Surface Ground Temperature {C}
  2.13240047156047,                       !- March Surface Ground Temperature {C}
  3.08567940719286,                       !- April Surface Ground Temperature {C}
  6.91256312497526,                       !- May Surface Ground Temperature {C}
  10.7216195949507,                       !- June Surface Ground Temperature {C}
  14.0238679822574,                       !- July Surface Ground Temperature {C}
  16.1157611184724,                       !- August Surface Ground Temperature {C}
  16.2934789303462,                       !- September Surface Ground Temperature {C}
  14.5920754632847,                       !- October Surface Ground Temperature {C}
  11.374036348653,                        !- November Surface Ground Temperature {C}
  7.68182621661674;                       !- December Surface Ground Temperature {C}

OS:ThermalZone,
  {3b6b6df2-bdbc-45e9-a8be-60d9b457d43f}, !- Handle
  conditioned space,                      !- Name
  1,                                      !- Multiplier
  ,                                       !- Ceiling Height {m}
  692.06373070848,                        !- Volume {m3}
  ,                                       !- Floor Area {m2}
  ,                                       !- Zone Inside Convection Algorithm
  ,                                       !- Zone Outside Convection Algorithm
  ,                                       !- Zone Conditioning Equipment List Name
  {32f6d854-b4e5-4c65-a192-351c0d734dfd}, !- Zone Air Inlet Port List
  {1c022569-be7e-4500-bd1c-1fc9b700661a}, !- Zone Air Exhaust Port List
  {cf3866d9-8bdf-43f6-8ea5-cc75ff616855}, !- Zone Air Node Name
  {350451be-bcbe-4e78-a356-a1e523ae69dd}, !- Zone Return Air Port List
  ,                                       !- Primary Daylighting Control Name
  ,                                       !- Fraction of Zone Controlled by Primary Daylighting Control
  ,                                       !- Secondary Daylighting Control Name
  ,                                       !- Fraction of Zone Controlled by Secondary Daylighting Control
  ,                                       !- Illuminance Map Name
  ,                                       !- Group Rendering Name
  {b5747175-fbb8-45ab-b2be-86aa089e43e0}, !- Thermostat Name
  No;                                     !- Use Ideal Air Loads

OS:Node,
  {c38c3311-3a1a-4231-974e-cf6f8bfaa378}, !- Handle
  Node 1,                                 !- Name
  {cf3866d9-8bdf-43f6-8ea5-cc75ff616855}, !- Inlet Port
  ;                                       !- Outlet Port

OS:Connection,
  {cf3866d9-8bdf-43f6-8ea5-cc75ff616855}, !- Handle
  {3b6b6df2-bdbc-45e9-a8be-60d9b457d43f}, !- Source Object
  11,                                     !- Outlet Port
  {c38c3311-3a1a-4231-974e-cf6f8bfaa378}, !- Target Object
  2;                                      !- Inlet Port

OS:PortList,
  {32f6d854-b4e5-4c65-a192-351c0d734dfd}, !- Handle
  {3b6b6df2-bdbc-45e9-a8be-60d9b457d43f}, !- HVAC Component
  {36b3ea1d-4e20-4fc2-80a2-2b88cd6af19f}; !- Port 1

OS:PortList,
  {1c022569-be7e-4500-bd1c-1fc9b700661a}, !- Handle
  {3b6b6df2-bdbc-45e9-a8be-60d9b457d43f}; !- HVAC Component

OS:PortList,
  {350451be-bcbe-4e78-a356-a1e523ae69dd}, !- Handle
  {3b6b6df2-bdbc-45e9-a8be-60d9b457d43f}, !- HVAC Component
  {4475df6a-6789-4570-a5c2-2c35c3892478}; !- Port 1

OS:Sizing:Zone,
  {9091e2ec-4c27-4eb9-b0a7-d9495f6e40e2}, !- Handle
  {3b6b6df2-bdbc-45e9-a8be-60d9b457d43f}, !- Zone or ZoneList Name
  SupplyAirTemperature,                   !- Zone Cooling Design Supply Air Temperature Input Method
  14,                                     !- Zone Cooling Design Supply Air Temperature {C}
  11.11,                                  !- Zone Cooling Design Supply Air Temperature Difference {deltaC}
  SupplyAirTemperature,                   !- Zone Heating Design Supply Air Temperature Input Method
  40,                                     !- Zone Heating Design Supply Air Temperature {C}
  11.11,                                  !- Zone Heating Design Supply Air Temperature Difference {deltaC}
  0.0085,                                 !- Zone Cooling Design Supply Air Humidity Ratio {kg-H2O/kg-air}
  0.008,                                  !- Zone Heating Design Supply Air Humidity Ratio {kg-H2O/kg-air}
  ,                                       !- Zone Heating Sizing Factor
  ,                                       !- Zone Cooling Sizing Factor
  DesignDay,                              !- Cooling Design Air Flow Method
  ,                                       !- Cooling Design Air Flow Rate {m3/s}
  ,                                       !- Cooling Minimum Air Flow per Zone Floor Area {m3/s-m2}
  ,                                       !- Cooling Minimum Air Flow {m3/s}
  ,                                       !- Cooling Minimum Air Flow Fraction
  DesignDay,                              !- Heating Design Air Flow Method
  ,                                       !- Heating Design Air Flow Rate {m3/s}
  ,                                       !- Heating Maximum Air Flow per Zone Floor Area {m3/s-m2}
  ,                                       !- Heating Maximum Air Flow {m3/s}
  ,                                       !- Heating Maximum Air Flow Fraction
  No,                                     !- Account for Dedicated Outdoor Air System
  NeutralSupplyAir,                       !- Dedicated Outdoor Air System Control Strategy
  autosize,                               !- Dedicated Outdoor Air Low Setpoint Temperature for Design {C}
  autosize,                               !- Dedicated Outdoor Air High Setpoint Temperature for Design {C}
  Sensible Load Only No Latent Load,      !- Zone Load Sizing Method
  HumidityRatioDifference,                !- Zone Latent Cooling Design Supply Air Humidity Ratio Input Method
  ,                                       !- Zone Dehumidification Design Supply Air Humidity Ratio {kgWater/kgDryAir}
  0.005,                                  !- Zone Cooling Design Supply Air Humidity Ratio Difference {kgWater/kgDryAir}
  HumidityRatioDifference,                !- Zone Latent Heating Design Supply Air Humidity Ratio Input Method
  ,                                       !- Zone Humidification Design Supply Air Humidity Ratio {kgWater/kgDryAir}
  0.005,                                  !- Zone Humidification Design Supply Air Humidity Ratio Difference {kgWater/kgDryAir}
  ,                                       !- Zone Humidistat Dehumidification Set Point Schedule Name
  ,                                       !- Zone Humidistat Humidification Set Point Schedule Name
  ,                                       !- Design Zone Air Distribution Effectiveness in Cooling Mode
  ,                                       !- Design Zone Air Distribution Effectiveness in Heating Mode
  ,                                       !- Design Zone Secondary Recirculation Fraction {dimensionless}
  ,                                       !- Design Minimum Zone Ventilation Efficiency {dimensionless}
  Coincident;                             !- Sizing Option

OS:ZoneHVAC:EquipmentList,
  {e64045be-dfed-4f53-88dd-d592b36d639a}, !- Handle
  Zone HVAC Equipment List 1,             !- Name
  {3b6b6df2-bdbc-45e9-a8be-60d9b457d43f}, !- Thermal Zone
  ,                                       !- Load Distribution Scheme
  {9294d7bf-d1dc-4b6d-9e7c-5b75006bcacf}, !- Zone Equipment 1
  1,                                      !- Zone Equipment Cooling Sequence 1
  1,                                      !- Zone Equipment Heating or No-Load Sequence 1
  {48423793-3f4c-4d08-85dd-f02747669603}, !- Zone Equipment Sequential Cooling Fraction Schedule Name 1
  {c7bb964a-aed0-471b-a8c6-664f05f37f72}; !- Zone Equipment Sequential Heating Fraction Schedule Name 1

OS:AdditionalProperties,
  {f2445474-f804-4085-a3f0-b2fae075ff43}, !- Handle
  {3b6b6df2-bdbc-45e9-a8be-60d9b457d43f}, !- Object Name
  ObjectType,                             !- Feature Name 1
  String,                                 !- Feature Data Type 1
  conditioned space;                      !- Feature Value 1

OS:Space,
  {2d238468-a5bf-42e6-8ccb-36af5b596e7e}, !- Handle
  conditioned space 1,                    !- Name
  ,                                       !- Space Type Name
  ,                                       !- Default Construction Set Name
  ,                                       !- Default Schedule Set Name
  ,                                       !- Direction of Relative North {deg}
  ,                                       !- X Origin {m}
  ,                                       !- Y Origin {m}
  ,                                       !- Z Origin {m}
  ,                                       !- Building Story Name
  {3b6b6df2-bdbc-45e9-a8be-60d9b457d43f}, !- Thermal Zone Name
  ,                                       !- Part of Total Floor Area
  ,                                       !- Design Specification Outdoor Air Object Name
  ,                                       !- Building Unit Name
  692.06373070848;                        !- Volume {m3}

OS:Schedule:Ruleset,
  {ec37dedb-d933-44c0-b999-a0a9a5b65f7e}, !- Handle
  heating setpoint,                       !- Name
  {39683136-a85c-4024-8c2e-e67895e0b606}, !- Schedule Type Limits Name
  {74e51398-47a2-4842-810d-e7413827ee36}; !- Default Day Schedule Name

OS:Schedule:Day,
  {74e51398-47a2-4842-810d-e7413827ee36}, !- Handle
  heating setpoint default day,           !- Name
  {39683136-a85c-4024-8c2e-e67895e0b606}, !- Schedule Type Limits Name
  ,                                       !- Interpolate to Timestep
  24,                                     !- Hour 1
  0,                                      !- Minute 1
  0;                                      !- Value Until Time 1

OS:Schedule:Rule,
  {1a2ac991-b3df-4884-a99b-d9a6a9ac4cc4}, !- Handle
  heating setpoint allday rule,           !- Name
  {ec37dedb-d933-44c0-b999-a0a9a5b65f7e}, !- Schedule Ruleset Name
  0,                                      !- Rule Order
  {6afd9767-0dad-4e46-bc1d-7f568cdfd4ce}, !- Day Schedule Name
  Yes,                                    !- Apply Sunday
  Yes,                                    !- Apply Monday
  Yes,                                    !- Apply Tuesday
  Yes,                                    !- Apply Wednesday
  Yes,                                    !- Apply Thursday
  Yes,                                    !- Apply Friday
  Yes,                                    !- Apply Saturday
  DateRange,                              !- Date Specification Type
  1,                                      !- Start Month
  1,                                      !- Start Day
  12,                                     !- End Month
  31;                                     !- End Day

OS:Schedule:Day,
  {6afd9767-0dad-4e46-bc1d-7f568cdfd4ce}, !- Handle
  heating setpoint day,                   !- Name
  {39683136-a85c-4024-8c2e-e67895e0b606}, !- Schedule Type Limits Name
  ,                                       !- Interpolate to Timestep
  24,                                     !- Hour 1
  0,                                      !- Minute 1
  20;                                     !- Value Until Time 1

OS:Schedule:Ruleset,
  {80bc7b8e-2f8a-4f43-861b-f73d2a554db7}, !- Handle
  cooling setpoint,                       !- Name
  {39683136-a85c-4024-8c2e-e67895e0b606}, !- Schedule Type Limits Name
  {fb839117-31c3-4f87-bd40-37b0c97a9904}; !- Default Day Schedule Name

OS:Schedule:Day,
  {fb839117-31c3-4f87-bd40-37b0c97a9904}, !- Handle
  cooling setpoint default day,           !- Name
  {39683136-a85c-4024-8c2e-e67895e0b606}, !- Schedule Type Limits Name
  ,                                       !- Interpolate to Timestep
  24,                                     !- Hour 1
  0,                                      !- Minute 1
  0;                                      !- Value Until Time 1

OS:Schedule:Rule,
  {48c6476e-d5a0-4bf2-a6ef-45fbdf39abf9}, !- Handle
  cooling setpoint allday rule,           !- Name
  {80bc7b8e-2f8a-4f43-861b-f73d2a554db7}, !- Schedule Ruleset Name
  0,                                      !- Rule Order
  {7f67184e-7418-4702-8d1d-e5cc5209009e}, !- Day Schedule Name
  Yes,                                    !- Apply Sunday
  Yes,                                    !- Apply Monday
  Yes,                                    !- Apply Tuesday
  Yes,                                    !- Apply Wednesday
  Yes,                                    !- Apply Thursday
  Yes,                                    !- Apply Friday
  Yes,                                    !- Apply Saturday
  DateRange,                              !- Date Specification Type
  1,                                      !- Start Month
  1,                                      !- Start Day
  12,                                     !- End Month
  31;                                     !- End Day

OS:Schedule:Day,
  {7f67184e-7418-4702-8d1d-e5cc5209009e}, !- Handle
  cooling setpoint day,                   !- Name
  {39683136-a85c-4024-8c2e-e67895e0b606}, !- Schedule Type Limits Name
  ,                                       !- Interpolate to Timestep
  24,                                     !- Hour 1
  0,                                      !- Minute 1
  25.5555555555556;                       !- Value Until Time 1

OS:ThermostatSetpoint:DualSetpoint,
  {b5747175-fbb8-45ab-b2be-86aa089e43e0}, !- Handle
  conditioned space temperature setpoint, !- Name
  {ec37dedb-d933-44c0-b999-a0a9a5b65f7e}, !- Heating Setpoint Temperature Schedule Name
  {80bc7b8e-2f8a-4f43-861b-f73d2a554db7}, !- Cooling Setpoint Temperature Schedule Name
  0;                                      !- Temperature Difference Between Cutout And Setpoint {deltaC}

OS:ScheduleTypeLimits,
  {39683136-a85c-4024-8c2e-e67895e0b606}, !- Handle
  Temperature,                            !- Name
  ,                                       !- Lower Limit Value
  ,                                       !- Upper Limit Value
  Continuous,                             !- Numeric Type
  Temperature;                            !- Unit Type

OS:Surface,
  {c1209a35-5e90-4dd4-b937-7ab05c919723}, !- Handle
  Roof1,                                  !- Name
  RoofCeiling,                            !- Surface Type
  {4f3cd69f-40b4-43b4-9d16-5ec0e3b4f529}, !- Construction Name
  {d1fe975e-0c48-4e11-b89a-c5876d573aab}, !- Space Name
  Outdoors,                               !- Outside Boundary Condition
  ,                                       !- Outside Boundary Condition Object
  SunExposed,                             !- Sun Exposure
  WindExposed,                            !- Wind Exposure
  ,                                       !- View Factor to Ground
  ,                                       !- Number of Vertices
  -26.9347048849634, 58.0557891618865, 2.4384, !- X,Y,Z Vertex 1 {m}
  -26.9347048849634, 46.7895631136661, 8.0715130241102, !- X,Y,Z Vertex 2 {m}
  -14.3386812381136, 46.7895631136661, 8.0715130241102, !- X,Y,Z Vertex 3 {m}
  -14.3386812381136, 58.0557891618865, 2.4384; !- X,Y,Z Vertex 4 {m}

OS:AdditionalProperties,
  {51828b9a-5ce3-4c23-9deb-418235dffed0}, !- Handle
  {c1209a35-5e90-4dd4-b937-7ab05c919723}, !- Object Name
  Length,                                 !- Feature Name 1
  Double,                                 !- Feature Data Type 1
  41.325536899113608,                     !- Feature Value 1
  Width,                                  !- Feature Name 2
  Double,                                 !- Feature Data Type 2
  41.325536899113601,                     !- Feature Value 2
  Azimuth,                                !- Feature Name 3
  Integer,                                !- Feature Data Type 3
  0,                                      !- Feature Value 3
  Tilt,                                   !- Feature Name 4
  Double,                                 !- Feature Data Type 4
  0.5,                                    !- Feature Value 4
  SurfaceType,                            !- Feature Name 5
  String,                                 !- Feature Data Type 5
  Roof;                                   !- Feature Value 5

OS:ThermalZone,
  {63cd1434-9b28-47b3-ac42-bdf57b2cbaf9}, !- Handle
  attic - vented,                         !- Name
  1,                                      !- Multiplier
  ,                                       !- Ceiling Height {m}
  356.389957095237,                       !- Volume {m3}
  ,                                       !- Floor Area {m2}
  ,                                       !- Zone Inside Convection Algorithm
  ,                                       !- Zone Outside Convection Algorithm
  ,                                       !- Zone Conditioning Equipment List Name
  {aa232c3b-0669-42e6-b46f-e81eb9dde71c}, !- Zone Air Inlet Port List
  {7e75dd27-9cbf-4b66-9cad-941efcec2db1}, !- Zone Air Exhaust Port List
  {ebfc0845-bdd3-4a99-b2c4-914b24a65b54}, !- Zone Air Node Name
  {e3b0f0fa-5b9d-4100-ba21-6c16818d7e46}, !- Zone Return Air Port List
  ,                                       !- Primary Daylighting Control Name
  ,                                       !- Fraction of Zone Controlled by Primary Daylighting Control
  ,                                       !- Secondary Daylighting Control Name
  ,                                       !- Fraction of Zone Controlled by Secondary Daylighting Control
  ,                                       !- Illuminance Map Name
  ,                                       !- Group Rendering Name
  ,                                       !- Thermostat Name
  No;                                     !- Use Ideal Air Loads

OS:Node,
  {2b22bebf-d6e6-4049-9b00-36b0422c1d07}, !- Handle
  Node 2,                                 !- Name
  {ebfc0845-bdd3-4a99-b2c4-914b24a65b54}, !- Inlet Port
  ;                                       !- Outlet Port

OS:Connection,
  {ebfc0845-bdd3-4a99-b2c4-914b24a65b54}, !- Handle
  {63cd1434-9b28-47b3-ac42-bdf57b2cbaf9}, !- Source Object
  11,                                     !- Outlet Port
  {2b22bebf-d6e6-4049-9b00-36b0422c1d07}, !- Target Object
  2;                                      !- Inlet Port

OS:PortList,
  {aa232c3b-0669-42e6-b46f-e81eb9dde71c}, !- Handle
  {63cd1434-9b28-47b3-ac42-bdf57b2cbaf9}; !- HVAC Component

OS:PortList,
  {7e75dd27-9cbf-4b66-9cad-941efcec2db1}, !- Handle
  {63cd1434-9b28-47b3-ac42-bdf57b2cbaf9}; !- HVAC Component

OS:PortList,
  {e3b0f0fa-5b9d-4100-ba21-6c16818d7e46}, !- Handle
  {63cd1434-9b28-47b3-ac42-bdf57b2cbaf9}; !- HVAC Component

OS:Sizing:Zone,
  {2224c342-009f-467e-84ea-008fdfa79728}, !- Handle
  {63cd1434-9b28-47b3-ac42-bdf57b2cbaf9}, !- Zone or ZoneList Name
  SupplyAirTemperature,                   !- Zone Cooling Design Supply Air Temperature Input Method
  14,                                     !- Zone Cooling Design Supply Air Temperature {C}
  11.11,                                  !- Zone Cooling Design Supply Air Temperature Difference {deltaC}
  SupplyAirTemperature,                   !- Zone Heating Design Supply Air Temperature Input Method
  40,                                     !- Zone Heating Design Supply Air Temperature {C}
  11.11,                                  !- Zone Heating Design Supply Air Temperature Difference {deltaC}
  0.0085,                                 !- Zone Cooling Design Supply Air Humidity Ratio {kg-H2O/kg-air}
  0.008,                                  !- Zone Heating Design Supply Air Humidity Ratio {kg-H2O/kg-air}
  ,                                       !- Zone Heating Sizing Factor
  ,                                       !- Zone Cooling Sizing Factor
  DesignDay,                              !- Cooling Design Air Flow Method
  ,                                       !- Cooling Design Air Flow Rate {m3/s}
  ,                                       !- Cooling Minimum Air Flow per Zone Floor Area {m3/s-m2}
  ,                                       !- Cooling Minimum Air Flow {m3/s}
  ,                                       !- Cooling Minimum Air Flow Fraction
  DesignDay,                              !- Heating Design Air Flow Method
  ,                                       !- Heating Design Air Flow Rate {m3/s}
  ,                                       !- Heating Maximum Air Flow per Zone Floor Area {m3/s-m2}
  ,                                       !- Heating Maximum Air Flow {m3/s}
  ,                                       !- Heating Maximum Air Flow Fraction
  No,                                     !- Account for Dedicated Outdoor Air System
  NeutralSupplyAir,                       !- Dedicated Outdoor Air System Control Strategy
  autosize,                               !- Dedicated Outdoor Air Low Setpoint Temperature for Design {C}
  autosize,                               !- Dedicated Outdoor Air High Setpoint Temperature for Design {C}
  Sensible Load Only No Latent Load,      !- Zone Load Sizing Method
  HumidityRatioDifference,                !- Zone Latent Cooling Design Supply Air Humidity Ratio Input Method
  ,                                       !- Zone Dehumidification Design Supply Air Humidity Ratio {kgWater/kgDryAir}
  0.005,                                  !- Zone Cooling Design Supply Air Humidity Ratio Difference {kgWater/kgDryAir}
  HumidityRatioDifference,                !- Zone Latent Heating Design Supply Air Humidity Ratio Input Method
  ,                                       !- Zone Humidification Design Supply Air Humidity Ratio {kgWater/kgDryAir}
  0.005,                                  !- Zone Humidification Design Supply Air Humidity Ratio Difference {kgWater/kgDryAir}
  ,                                       !- Zone Humidistat Dehumidification Set Point Schedule Name
  ,                                       !- Zone Humidistat Humidification Set Point Schedule Name
  ,                                       !- Design Zone Air Distribution Effectiveness in Cooling Mode
  ,                                       !- Design Zone Air Distribution Effectiveness in Heating Mode
  ,                                       !- Design Zone Secondary Recirculation Fraction {dimensionless}
  ,                                       !- Design Minimum Zone Ventilation Efficiency {dimensionless}
  Coincident;                             !- Sizing Option

OS:ZoneHVAC:EquipmentList,
  {dfca62c7-45ad-4704-a61e-258db0fc5d9f}, !- Handle
  Zone HVAC Equipment List 2,             !- Name
  {63cd1434-9b28-47b3-ac42-bdf57b2cbaf9}; !- Thermal Zone

OS:AdditionalProperties,
  {75fd1ab7-66bd-4bf9-96a5-77c7af0ab160}, !- Handle
  {63cd1434-9b28-47b3-ac42-bdf57b2cbaf9}, !- Object Name
  ObjectType,                             !- Feature Name 1
  String,                                 !- Feature Data Type 1
  attic - vented;                         !- Feature Value 1

OS:Space,
  {d1fe975e-0c48-4e11-b89a-c5876d573aab}, !- Handle
  attic - vented 1,                       !- Name
  ,                                       !- Space Type Name
  ,                                       !- Default Construction Set Name
  ,                                       !- Default Schedule Set Name
  ,                                       !- Direction of Relative North {deg}
  ,                                       !- X Origin {m}
  ,                                       !- Y Origin {m}
  ,                                       !- Z Origin {m}
  ,                                       !- Building Story Name
  {63cd1434-9b28-47b3-ac42-bdf57b2cbaf9}, !- Thermal Zone Name
  ,                                       !- Part of Total Floor Area
  ,                                       !- Design Specification Outdoor Air Object Name
  ,                                       !- Building Unit Name
  356.389957095237;                       !- Volume {m3}

OS:Material,
  {15d3b3db-fa0a-4bcb-8faf-038f4085ce05}, !- Handle
  asphalt or fiberglass shingles,         !- Name
  Rough,                                  !- Roughness
  0.00635,                                !- Thickness {m}
  0.162714,                               !- Conductivity {W/m-K}
  1121.4,                                 !- Density {kg/m3}
  1465.45,                                !- Specific Heat {J/kg-K}
  0.9,                                    !- Thermal Absorptance
  0.85,                                   !- Solar Absorptance