
OS:Version,
  {c1180bd8-6205-48bb-a5be-bcef4dda8868}, !- Handle
  3.10.0;                                 !- Version Identifier

OS:SimulationControl,
  {e457f711-1c29-474f-b5a8-a12cbb4a43f0}, !- Handle
  ,                                       !- Do Zone Sizing Calculation
  ,                                       !- Do System Sizing Calculation
  ,                                       !- Do Plant Sizing Calculation
  No;                                     !- Run Simulation for Sizing Periods

OS:Timestep,
  {4f898f8a-b7c2-4a7d-85a7-c3fab6f77de6}, !- Handle
  1;                                      !- Number of Timesteps per Hour

OS:ShadowCalculation,
  {99af8efa-8a60-4d2d-bcc4-ad74db6caf5e}, !- Handle
  PolygonClipping,                        !- Shading Calculation Method
  ,                                       !- Shading Calculation Update Frequency Method
  20,                                     !- Shading Calculation Update Frequency
  200,                                    !- Maximum Figures in Shadow Overlap Calculations
  ,                                       !- Polygon Clipping Algorithm
  512,                                    !- Pixel Counting Resolution
  ,                                       !- Sky Diffuse Modeling Algorithm
  No,                                     !- Output External Shading Calculation Results
  No,                                     !- Disable Self-Shading Within Shading Zone Groups
  No;                                     !- Disable Self-Shading From Shading Zone Groups to Other Zones

OS:SurfaceConvectionAlgorithm:Outside,
  {84f111ee-871c-45d0-b420-f944e6fed749}, !- Handle
  DOE-2;                                  !- Algorithm

OS:SurfaceConvectionAlgorithm:Inside,
  {16dc48ac-2a2a-4a95-ac43-c63907b80444}, !- Handle
  TARP;                                   !- Algorithm

OS:ZoneCapacitanceMultiplier:ResearchSpecial,
  {41a406e2-77c4-4837-b295-eb5202dbc24d}, !- Handle
  7,                                      !- Temperature Capacity Multiplier
  15,                                     !- Humidity Capacity Multiplier
  ;                                       !- Carbon Dioxide Capacity Multiplier

OS:ConvergenceLimits,
  {42c01f4f-54c0-4055-a378-56800334a16f}, !- Handle
  0;                                      !- Minimum System Timestep {minutes}

OS:RunPeriod,
  {eed33c04-f8d0-4fba-bfbe-566766d7ffc8}, !- Handle
  Run Period 1,                           !- Name
  1,                                      !- Begin Month
  1,                                      !- Begin Day of Month
  12,                                     !- End Month
  31,                                     !- End Day of Month
  ,                                       !- Use Weather File Holidays and Special Days
  ,                                       !- Use Weather File Daylight Saving Period
  ,                                       !- Apply Weekend Holiday Rule
  ,                                       !- Use Weather File Rain Indicators
  ,                                       !- Use Weather File Snow Indicators
  ;                                       !- Number of Times Runperiod to be Repeated

OS:PerformancePrecisionTradeoffs,
  {a15b3164-58bd-4a98-a0cc-47c2ca915c49}, !- Handle
  ,                                       !- Use Coil Direct Solutions
  CarrollMRT;                             !- Zone Radiant Exchange Algorithm

OS:WeatherFile,
  {139c0050-0123-4c61-8c5e-96f258d197f1}, !- Handle
  Buffalo Niagara Intl Ap,                !- City
  NY,                                     !- State Province Region
  USA,                                    !- Country
  TMY3,                                   !- Data Source
  725280,                                 !- WMO Number
  42.93,                                  !- Latitude {deg}
  -78.73,                                 !- Longitude {deg}
  -5,                                     !- Time Zone {hr}
  215,                                    !- Elevation {m}
  /Users/nmoore/github/urbanopt-example-geojson-project/example_project/weather/USA_NY_Buffalo-Greater.Buffalo.Intl.AP.725280_TMY3.epw, !- Url
  6B50E0FF,                               !- Checksum
  ,                                       !- Start Date Actual Year
  Sunday;                                 !- Start Day of Week

OS:YearDescription,
  {69ee5374-1d9b-47e5-a6e0-de8d1776ae59}, !- Handle
  2007,                                   !- Calendar Year
  ,                                       !- Day of Week for Start Day
  ;                                       !- Is Leap Year

OS:Site,
  {e67d7484-6f3d-4fc9-b7c2-4d8383886607}, !- Handle
  Buffalo Niagara Intl Ap_NY,             !- Name
  42.93,                                  !- Latitude {deg}
  -78.73,                                 !- Longitude {deg}
  -5,                                     !- Time Zone {hr}
  215,                                    !- Elevation {m}
  Suburbs,                                !- Terrain
  Yes;                                    !- Keep Site Location Information

OS:RunPeriodControl:DaylightSavingTime,
  {0038529b-243f-4831-bbf4-3e23b5a8ca45}, !- Handle
  Mar 12,                                 !- Start Date
  Nov 5;                                  !- End Date

OS:Site:GroundTemperature:Shallow,
  {02eebc6a-5447-4e36-9d51-b51e7f6dfdbb}, !- Handle
  4.30207395723828,                       !- January Surface Ground Temperature {C}
  2.29327249652502,                       !- February Surface Ground Temperature {C}
  2.13240047156047,                       !- March Surface Ground Temperature {C}
  3.08567940719286,                       !- April Surface Ground Temperature {C}
  6.91256312497526,                       !- May Surface Ground Temperature {C}
  10.7216195949507,                       !- June Surface Ground Temperature {C}
  14.0238679822574,                       !- July Surface Ground Temperature {C}
  16.1157611184724,                       !- August Surface Ground Temperature {C}
  16.2934789303462,                       !- September Surface Ground Temperature {C}
  14.5920754632847,                       !- October Surface Ground Temperature {C}
  11.374036348653,                        !- November Surface Ground Temperature {C}
  7.68182621661674;                       !- December Surface Ground Temperature {C}

OS:ThermalZone,
  {c5243f93-7973-4978-93a9-1dd36204c85c}, !- Handle
  conditioned space,                      !- Name
  1,                                      !- Multiplier
  ,                                       !- Ceiling Height {m}
  692.06373070848,                        !- Volume {m3}
  ,                                       !- Floor Area {m2}
  ,                                       !- Zone Inside Convection Algorithm
  ,                                       !- Zone Outside Convection Algorithm
  ,                                       !- Zone Conditioning Equipment List Name
  {22ff274c-363b-4232-b68b-bd30fe341b6b}, !- Zone Air Inlet Port List
  {e1cfcbd5-f1cf-4378-b025-11d4a29812fe}, !- Zone Air Exhaust Port List
  {cfb43b27-024b-4841-8ae0-da55582c133e}, !- Zone Air Node Name
  {7d05ecd1-b1c6-4141-bda1-598500125699}, !- Zone Return Air Port List
  ,                                       !- Primary Daylighting Control Name
  ,                                       !- Fraction of Zone Controlled by Primary Daylighting Control
  ,                                       !- Secondary Daylighting Control Name
  ,                                       !- Fraction of Zone Controlled by Secondary Daylighting Control
  ,                                       !- Illuminance Map Name
  ,                                       !- Group Rendering Name
  {81392c26-af84-4f49-9bbf-a05985f4f0d7}, !- Thermostat Name
  No;                                     !- Use Ideal Air Loads

OS:Node,
  {988630fb-3b62-4354-8844-3729665cd849}, !- Handle
  Node 1,                                 !- Name
  {cfb43b27-024b-4841-8ae0-da55582c133e}, !- Inlet Port
  ;                                       !- Outlet Port

OS:Connection,
  {cfb43b27-024b-4841-8ae0-da55582c133e}, !- Handle
  {c5243f93-7973-4978-93a9-1dd36204c85c}, !- Source Object
  11,                                     !- Outlet Port
  {988630fb-3b62-4354-8844-3729665cd849}, !- Target Object
  2;                                      !- Inlet Port

OS:PortList,
  {22ff274c-363b-4232-b68b-bd30fe341b6b}, !- Handle
  {c5243f93-7973-4978-93a9-1dd36204c85c}, !- HVAC Component
  {655c8271-47e1-483a-8ac4-6cfee4dd6503}; !- Port 1

OS:PortList,
  {e1cfcbd5-f1cf-4378-b025-11d4a29812fe}, !- Handle
  {c5243f93-7973-4978-93a9-1dd36204c85c}; !- HVAC Component

OS:PortList,
  {7d05ecd1-b1c6-4141-bda1-598500125699}, !- Handle
  {c5243f93-7973-4978-93a9-1dd36204c85c}, !- HVAC Component
  {0ab76cc0-84c8-4dff-a9bd-f5adbe4b976e}; !- Port 1

OS:Sizing:Zone,
  {6650e314-44c6-4fe1-be1c-67b661b414e2}, !- Handle
  {c5243f93-7973-4978-93a9-1dd36204c85c}, !- Zone or ZoneList Name
  SupplyAirTemperature,                   !- Zone Cooling Design Supply Air Temperature Input Method
  14,                                     !- Zone Cooling Design Supply Air Temperature {C}
  11.11,                                  !- Zone Cooling Design Supply Air Temperature Difference {deltaC}
  SupplyAirTemperature,                   !- Zone Heating Design Supply Air Temperature Input Method
  40,                                     !- Zone Heating Design Supply Air Temperature {C}
  11.11,                                  !- Zone Heating Design Supply Air Temperature Difference {deltaC}
  0.0085,                                 !- Zone Cooling Design Supply Air Humidity Ratio {kg-H2O/kg-air}
  0.008,                                  !- Zone Heating Design Supply Air Humidity Ratio {kg-H2O/kg-air}
  ,                                       !- Zone Heating Sizing Factor
  ,                                       !- Zone Cooling Sizing Factor
  DesignDay,                              !- Cooling Design Air Flow Method
  ,                                       !- Cooling Design Air Flow Rate {m3/s}
  ,                                       !- Cooling Minimum Air Flow per Zone Floor Area {m3/s-m2}
  ,                                       !- Cooling Minimum Air Flow {m3/s}
  ,                                       !- Cooling Minimum Air Flow Fraction
  DesignDay,                              !- Heating Design Air Flow Method
  ,                                       !- Heating Design Air Flow Rate {m3/s}
  ,                                       !- Heating Maximum Air Flow per Zone Floor Area {m3/s-m2}
  ,                                       !- Heating Maximum Air Flow {m3/s}
  ,                                       !- Heating Maximum Air Flow Fraction
  No,                                     !- Account for Dedicated Outdoor Air System
  NeutralSupplyAir,                       !- Dedicated Outdoor Air System Control Strategy
  autosize,                               !- Dedicated Outdoor Air Low Setpoint Temperature for Design {C}
  autosize,                               !- Dedicated Outdoor Air High Setpoint Temperature for Design {C}
  Sensible Load Only No Latent Load,      !- Zone Load Sizing Method
  HumidityRatioDifference,                !- Zone Latent Cooling Design Supply Air Humidity Ratio Input Method
  ,                                       !- Zone Dehumidification Design Supply Air Humidity Ratio {kgWater/kgDryAir}
  0.005,                                  !- Zone Cooling Design Supply Air Humidity Ratio Difference {kgWater/kgDryAir}
  HumidityRatioDifference,                !- Zone Latent Heating Design Supply Air Humidity Ratio Input Method
  ,                                       !- Zone Humidification Design Supply Air Humidity Ratio {kgWater/kgDryAir}
  0.005,                                  !- Zone Humidification Design Supply Air Humidity Ratio Difference {kgWater/kgDryAir}
  ,                                       !- Zone Humidistat Dehumidification Set Point Schedule Name
  ,                                       !- Zone Humidistat Humidification Set Point Schedule Name
  ,                                       !- Design Zone Air Distribution Effectiveness in Cooling Mode
  ,                                       !- Design Zone Air Distribution Effectiveness in Heating Mode
  ,                                       !- Design Zone Secondary Recirculation Fraction {dimensionless}
  ,                                       !- Design Minimum Zone Ventilation Efficiency {dimensionless}
  Coincident;                             !- Sizing Option

OS:ZoneHVAC:EquipmentList,
  {26f29d7b-cd18-4f40-9890-a923c201ab36}, !- Handle
  Zone HVAC Equipment List 1,             !- Name
  {c5243f93-7973-4978-93a9-1dd36204c85c}, !- Thermal Zone
  ,                                       !- Load Distribution Scheme
  {b0384d97-2871-4ec6-abbc-9cf1b4a2247d}, !- Zone Equipment 1
  1,                                      !- Zone Equipment Cooling Sequence 1
  1,                                      !- Zone Equipment Heating or No-Load Sequence 1
  {58cae267-5e82-4b72-8bf8-8ee62ca900d3}, !- Zone Equipment Sequential Cooling Fraction Schedule Name 1
  {d83cfc6b-4bf3-44f9-86a4-2991a64c84a6}; !- Zone Equipment Sequential Heating Fraction Schedule Name 1

OS:AdditionalProperties,
  {2b5284c4-637e-49eb-b480-6a2f172cdb5f}, !- Handle
  {c5243f93-7973-4978-93a9-1dd36204c85c}, !- Object Name
  ObjectType,                             !- Feature Name 1
  String,                                 !- Feature Data Type 1
  conditioned space;                      !- Feature Value 1

OS:Space,
  {27315e31-e083-42d8-8613-232d347b31d3}, !- Handle
  conditioned space 1,                    !- Name
  ,                                       !- Space Type Name
  ,                                       !- Default Construction Set Name
  ,                                       !- Default Schedule Set Name
  ,                                       !- Direction of Relative North {deg}
  ,                                       !- X Origin {m}
  ,                                       !- Y Origin {m}
  ,                                       !- Z Origin {m}
  ,                                       !- Building Story Name
  {c5243f93-7973-4978-93a9-1dd36204c85c}, !- Thermal Zone Name
  ,                                       !- Part of Total Floor Area
  ,                                       !- Design Specification Outdoor Air Object Name
  ,                                       !- Building Unit Name
  692.06373070848;                        !- Volume {m3}

OS:Schedule:Ruleset,
  {3dab69e4-cb18-4703-b084-f45cb0a61bdd}, !- Handle
  heating setpoint,                       !- Name
  {3f53f83d-213f-41ec-9388-5dd208590f3b}, !- Schedule Type Limits Name
  {fbcfa221-2c43-49f3-887d-ee1d20b31179}; !- Default Day Schedule Name

OS:Schedule:Day,
  {fbcfa221-2c43-49f3-887d-ee1d20b31179}, !- Handle
  heating setpoint default day,           !- Name
  {3f53f83d-213f-41ec-9388-5dd208590f3b}, !- Schedule Type Limits Name
  ,                                       !- Interpolate to Timestep
  24,                                     !- Hour 1
  0,                                      !- Minute 1
  0;                                      !- Value Until Time 1

OS:Schedule:Rule,
  {fb9bb869-8ea7-4e52-8772-331ff3d35c22}, !- Handle
  heating setpoint allday rule,           !- Name
  {3dab69e4-cb18-4703-b084-f45cb0a61bdd}, !- Schedule Ruleset Name
  0,                                      !- Rule Order
  {cb7be7ff-76f5-43f6-88a6-36a7fa919088}, !- Day Schedule Name
  Yes,                                    !- Apply Sunday
  Yes,                                    !- Apply Monday
  Yes,                                    !- Apply Tuesday
  Yes,                                    !- Apply Wednesday
  Yes,                                    !- Apply Thursday
  Yes,                                    !- Apply Friday
  Yes,                                    !- Apply Saturday
  DateRange,                              !- Date Specification Type
  1,                                      !- Start Month
  1,                                      !- Start Day
  12,                                     !- End Month
  31;                                     !- End Day

OS:Schedule:Day,
  {cb7be7ff-76f5-43f6-88a6-36a7fa919088}, !- Handle
  heating setpoint day,                   !- Name
  {3f53f83d-213f-41ec-9388-5dd208590f3b}, !- Schedule Type Limits Name
  ,                                       !- Interpolate to Timestep
  24,                                     !- Hour 1
  0,                                      !- Minute 1
  20;                                     !- Value Until Time 1

OS:Schedule:Ruleset,
  {df2ad43f-b0b2-4902-93a8-4aa44860c84c}, !- Handle
  cooling setpoint,                       !- Name
  {3f53f83d-213f-41ec-9388-5dd208590f3b}, !- Schedule Type Limits Name
  {44b590ca-78ed-4dd0-b23d-6ae1515e2dbd}; !- Default Day Schedule Name

OS:Schedule:Day,
  {44b590ca-78ed-4dd0-b23d-6ae1515e2dbd}, !- Handle
  cooling setpoint default day,           !- Name
  {3f53f83d-213f-41ec-9388-5dd208590f3b}, !- Schedule Type Limits Name
  ,                                       !- Interpolate to Timestep
  24,                                     !- Hour 1
  0,                                      !- Minute 1
  0;                                      !- Value Until Time 1

OS:Schedule:Rule,
  {956b8c31-0fd4-492a-9c6b-f61c6000d4d2}, !- Handle
  cooling setpoint allday rule,           !- Name
  {df2ad43f-b0b2-4902-93a8-4aa44860c84c}, !- Schedule Ruleset Name
  0,                                      !- Rule Order
  {4cd87c13-e080-412d-b30e-cd167cc14edc}, !- Day Schedule Name
  Yes,                                    !- Apply Sunday
  Yes,                                    !- Apply Monday
  Yes,                                    !- Apply Tuesday
  Yes,                                    !- Apply Wednesday
  Yes,                                    !- Apply Thursday
  Yes,                                    !- Apply Friday
  Yes,                                    !- Apply Saturday
  DateRange,                              !- Date Specification Type
  1,                                      !- Start Month
  1,                                      !- Start Day
  12,                                     !- End Month
  31;                                     !- End Day

OS:Schedule:Day,
  {4cd87c13-e080-412d-b30e-cd167cc14edc}, !- Handle
  cooling setpoint day,                   !- Name
  {3f53f83d-213f-41ec-9388-5dd208590f3b}, !- Schedule Type Limits Name
  ,                                       !- Interpolate to Timestep
  24,                                     !- Hour 1
  0,                                      !- Minute 1
  25.5555555555556;                       !- Value Until Time 1

OS:ThermostatSetpoint:DualSetpoint,
  {81392c26-af84-4f49-9bbf-a05985f4f0d7}, !- Handle
  conditioned space temperature setpoint, !- Name
  {3dab69e4-cb18-4703-b084-f45cb0a61bdd}, !- Heating Setpoint Temperature Schedule Name
  {df2ad43f-b0b2-4902-93a8-4aa44860c84c}, !- Cooling Setpoint Temperature Schedule Name
  0;                                      !- Temperature Difference Between Cutout And Setpoint {deltaC}

OS:ScheduleTypeLimits,
  {3f53f83d-213f-41ec-9388-5dd208590f3b}, !- Handle
  Temperature,                            !- Name
  ,                                       !- Lower Limit Value
  ,                                       !- Upper Limit Value
  Continuous,                             !- Numeric Type
  Temperature;                            !- Unit Type

OS:Surface,
  {92957c69-c3b3-4f8c-aff1-dffe57f13e38}, !- Handle
  Roof1,                                  !- Name
  RoofCeiling,                            !- Surface Type
  {a261411b-80c0-4abd-afac-a1e4fae56746}, !- Construction Name
  {2ae12dbf-1d08-4eb8-992b-8f1f5f1cdb86}, !- Space Name
  Outdoors,                               !- Outside Boundary Condition
  ,                                       !- Outside Boundary Condition Object
  SunExposed,                             !- Sun Exposure
  WindExposed,                            !- Wind Exposure
  ,                                       !- View Factor to Ground
  ,                                       !- Number of Vertices
  -26.9347048849634, 58.0557891618865, 2.4384, !- X,Y,Z Vertex 1 {m}
  -26.9347048849634, 46.7895631136661, 8.0715130241102, !- X,Y,Z Vertex 2 {m}
  -14.3386812381136, 46.7895631136661, 8.0715130241102, !- X,Y,Z Vertex 3 {m}
  -14.3386812381136, 58.0557891618865, 2.4384; !- X,Y,Z Vertex 4 {m}

OS:AdditionalProperties,
  {9edda3b5-9d56-457f-b7ad-5d6f5ae77f2f}, !- Handle
  {92957c69-c3b3-4f8c-aff1-dffe57f13e38}, !- Object Name
  Length,                                 !- Feature Name 1
  Double,                                 !- Feature Data Type 1
  41.325536899113608,                     !- Feature Value 1
  Width,                                  !- Feature Name 2
  Double,                                 !- Feature Data Type 2
  41.325536899113601,                     !- Feature Value 2
  Azimuth,                                !- Feature Name 3
  Integer,                                !- Feature Data Type 3
  0,                                      !- Feature Value 3
  Tilt,                                   !- Feature Name 4
  Double,                                 !- Feature Data Type 4
  0.5,                                    !- Feature Value 4
  SurfaceType,                            !- Feature Name 5
  String,                                 !- Feature Data Type 5
  Roof;                                   !- Feature Value 5

OS:ThermalZone,
  {51d2d526-9c56-497c-bd25-d4b70595ed7c}, !- Handle
  attic - vented,                         !- Name
  1,                                      !- Multiplier
  ,                                       !- Ceiling Height {m}
  356.390921899745,                       !- Volume {m3}
  ,                                       !- Floor Area {m2}
  ,                                       !- Zone Inside Convection Algorithm
  ,                                       !- Zone Outside Convection Algorithm
  ,                                       !- Zone Conditioning Equipment List Name
  {45fa3359-6685-4a61-bacf-633da921ec3a}, !- Zone Air Inlet Port List
  {560f0663-5b2c-4181-a8e9-aa8b24c25aab}, !- Zone Air Exhaust Port List
  {ad5d3252-002e-4e03-a05c-5809ad9f015c}, !- Zone Air Node Name
  {23fd551b-a0f6-4ded-a973-fdfada655afa}, !- Zone Return Air Port List
  ,                                       !- Primary Daylighting Control Name
  ,                                       !- Fraction of Zone Controlled by Primary Daylighting Control
  ,                                       !- Secondary Daylighting Control Name
  ,                                       !- Fraction of Zone Controlled by Secondary Daylighting Control
  ,                                       !- Illuminance Map Name
  ,                                       !- Group Rendering Name
  ,                                       !- Thermostat Name
  No;                                     !- Use Ideal Air Loads

OS:Node,
  {13152fa8-7bc3-4efc-8859-dad08b27c9fb}, !- Handle
  Node 2,                                 !- Name
  {ad5d3252-002e-4e03-a05c-5809ad9f015c}, !- Inlet Port
  ;                                       !- Outlet Port

OS:Connection,
  {ad5d3252-002e-4e03-a05c-5809ad9f015c}, !- Handle
  {51d2d526-9c56-497c-bd25-d4b70595ed7c}, !- Source Object
  11,                                     !- Outlet Port
  {13152fa8-7bc3-4efc-8859-dad08b27c9fb}, !- Target Object
  2;                                      !- Inlet Port

OS:PortList,
  {45fa3359-6685-4a61-bacf-633da921ec3a}, !- Handle
  {51d2d526-9c56-497c-bd25-d4b70595ed7c}; !- HVAC Component

OS:PortList,
  {560f0663-5b2c-4181-a8e9-aa8b24c25aab}, !- Handle
  {51d2d526-9c56-497c-bd25-d4b70595ed7c}; !- HVAC Component

OS:PortList,
  {23fd551b-a0f6-4ded-a973-fdfada655afa}, !- Handle
  {51d2d526-9c56-497c-bd25-d4b70595ed7c}; !- HVAC Component

OS:Sizing:Zone,
  {c259f8fc-5a21-420c-9ac3-2451e96b378f}, !- Handle
  {51d2d526-9c56-497c-bd25-d4b70595ed7c}, !- Zone or ZoneList Name
  SupplyAirTemperature,                   !- Zone Cooling Design Supply Air Temperature Input Method
  14,                                     !- Zone Cooling Design Supply Air Temperature {C}
  11.11,                                  !- Zone Cooling Design Supply Air Temperature Difference {deltaC}
  SupplyAirTemperature,                   !- Zone Heating Design Supply Air Temperature Input Method
  40,                                     !- Zone Heating Design Supply Air Temperature {C}
  11.11,                                  !- Zone Heating Design Supply Air Temperature Difference {deltaC}
  0.0085,                                 !- Zone Cooling Design Supply Air Humidity Ratio {kg-H2O/kg-air}
  0.008,                                  !- Zone Heating Design Supply Air Humidity Ratio {kg-H2O/kg-air}
  ,                                       !- Zone Heating Sizing Factor
  ,                                       !- Zone Cooling Sizing Factor
  DesignDay,                              !- Cooling Design Air Flow Method
  ,                                       !- Cooling Design Air Flow Rate {m3/s}
  ,                                       !- Cooling Minimum Air Flow per Zone Floor Area {m3/s-m2}
  ,                                       !- Cooling Minimum Air Flow {m3/s}
  ,                                       !- Cooling Minimum Air Flow Fraction
  DesignDay,                              !- Heating Design Air Flow Method
  ,                                       !- Heating Design Air Flow Rate {m3/s}
  ,                                       !- Heating Maximum Air Flow per Zone Floor Area {m3/s-m2}
  ,                                       !- Heating Maximum Air Flow {m3/s}
  ,                                       !- Heating Maximum Air Flow Fraction
  No,                                     !- Account for Dedicated Outdoor Air System
  NeutralSupplyAir,                       !- Dedicated Outdoor Air System Control Strategy
  autosize,                               !- Dedicated Outdoor Air Low Setpoint Temperature for Design {C}
  autosize,                               !- Dedicated Outdoor Air High Setpoint Temperature for Design {C}
  Sensible Load Only No Latent Load,      !- Zone Load Sizing Method
  HumidityRatioDifference,                !- Zone Latent Cooling Design Supply Air Humidity Ratio Input Method
  ,                                       !- Zone Dehumidification Design Supply Air Humidity Ratio {kgWater/kgDryAir}
  0.005,                                  !- Zone Cooling Design Supply Air Humidity Ratio Difference {kgWater/kgDryAir}
  HumidityRatioDifference,                !- Zone Latent Heating Design Supply Air Humidity Ratio Input Method
  ,                                       !- Zone Humidification Design Supply Air Humidity Ratio {kgWater/kgDryAir}
  0.005,                                  !- Zone Humidification Design Supply Air Humidity Ratio Difference {kgWater/kgDryAir}
  ,                                       !- Zone Humidistat Dehumidification Set Point Schedule Name
  ,                                       !- Zone Humidistat Humidification Set Point Schedule Name
  ,                                       !- Design Zone Air Distribution Effectiveness in Cooling Mode
  ,                                       !- Design Zone Air Distribution Effectiveness in Heating Mode
  ,                                       !- Design Zone Secondary Recirculation Fraction {dimensionless}
  ,                                       !- Design Minimum Zone Ventilation Efficiency {dimensionless}
  Coincident;                             !- Sizing Option

OS:ZoneHVAC:EquipmentList,
  {4a80ea70-eaeb-46c9-8526-dc9a32e4cd57}, !- Handle
  Zone HVAC Equipment List 2,             !- Name
  {51d2d526-9c56-497c-bd25-d4b70595ed7c}; !- Thermal Zone

OS:AdditionalProperties,
  {ccf9b3fe-9140-43c1-9273-84adaf7cb095}, !- Handle
  {51d2d526-9c56-497c-bd25-d4b70595ed7c}, !- Object Name
  ObjectType,                             !- Feature Name 1
  String,                                 !- Feature Data Type 1
  attic - vented;                         !- Feature Value 1

OS:Space,
  {2ae12dbf-1d08-4eb8-992b-8f1f5f1cdb86}, !- Handle
  attic - vented 1,                       !- Name
  ,                                       !- Space Type Name
  ,                                       !- Default Construction Set Name
  ,                                       !- Default Schedule Set Name
  ,                                       !- Direction of Relative North {deg}
  ,                                       !- X Origin {m}
  ,                                       !- Y Origin {m}
  ,                                       !- Z Origin {m}
  ,                                       !- Building Story Name
  {51d2d526-9c56-497c-bd25-d4b70595ed7c}, !- Thermal Zone Name
  ,                                       !- Part of Total Floor Area
  ,                                       !- Design Specification Outdoor Air Object Name
  ,                                       !- Building Unit Name
  356.390921899745;                       !- Volume {m3}

OS:Material,
  {b8771fa5-8da9-4103-89c8-cc3984572d5a}, !- Handle
  asphalt or fiberglass shingles,         !- Name
  Rough,                                  !- Roughness
  0.00635,                                !- Thickness {m}
  0.162714,                               !- Conductivity {W/m-K}
  1121.4,                                 !- Density {kg/m3}
  1465.45,                                !- Specific Heat {J/kg-K}
  0.9,                                    !- Thermal Absorptance
  0.85,                                   !- Solar Absorptance