
OS:Version,
  {248f8eb0-e9c0-4aad-821b-b219d9a38108}, !- Handle
  3.9.0;                                  !- Version Identifier

OS:SimulationControl,
  {2b3e3a4f-47c8-4ef0-85e2-dbdafd0fb61e}, !- Handle
  ,                                       !- Do Zone Sizing Calculation
  ,                                       !- Do System Sizing Calculation
  ,                                       !- Do Plant Sizing Calculation
  No;                                     !- Run Simulation for Sizing Periods

OS:Timestep,
  {a2fbb817-cae1-4386-aa5e-ebedf5bb371d}, !- Handle
  1;                                      !- Number of Timesteps per Hour

OS:ShadowCalculation,
  {cb1c6011-380d-4977-9625-c6c7273d4377}, !- Handle
  PolygonClipping,                        !- Shading Calculation Method
  ,                                       !- Shading Calculation Update Frequency Method
  20,                                     !- Shading Calculation Update Frequency
  200,                                    !- Maximum Figures in Shadow Overlap Calculations
  ,                                       !- Polygon Clipping Algorithm
  512,                                    !- Pixel Counting Resolution
  ,                                       !- Sky Diffuse Modeling Algorithm
  No,                                     !- Output External Shading Calculation Results
  No,                                     !- Disable Self-Shading Within Shading Zone Groups
  No;                                     !- Disable Self-Shading From Shading Zone Groups to Other Zones

OS:SurfaceConvectionAlgorithm:Outside,
  {b0b8fb3b-690c-423f-ba35-7bee647fbaf0}, !- Handle
  DOE-2;                                  !- Algorithm

OS:SurfaceConvectionAlgorithm:Inside,
  {bb2c54ca-2699-4dfd-82b8-03d83a2acc97}, !- Handle
  TARP;                                   !- Algorithm

OS:ZoneCapacitanceMultiplier:ResearchSpecial,
  {1333868c-4c99-4356-b05a-6ae2c6624cde}, !- Handle
  7,                                      !- Temperature Capacity Multiplier
  15,                                     !- Humidity Capacity Multiplier
  ;                                       !- Carbon Dioxide Capacity Multiplier

OS:ConvergenceLimits,
  {3e2f7e89-a287-49d1-afc6-136d80a11879}, !- Handle
  0;                                      !- Minimum System Timestep {minutes}

OS:RunPeriod,
  {a12f52ec-06f4-4e3b-be8b-0d23bb5667af}, !- Handle
  Run Period 1,                           !- Name
  1,                                      !- Begin Month
  1,                                      !- Begin Day of Month
  12,                                     !- End Month
  31,                                     !- End Day of Month
  ,                                       !- Use Weather File Holidays and Special Days
  ,                                       !- Use Weather File Daylight Saving Period
  ,                                       !- Apply Weekend Holiday Rule
  ,                                       !- Use Weather File Rain Indicators
  ,                                       !- Use Weather File Snow Indicators
  ;                                       !- Number of Times Runperiod to be Repeated

OS:PerformancePrecisionTradeoffs,
  {245c1035-4c56-4a6b-ac3c-2e4cf281828b}, !- Handle
  ,                                       !- Use Coil Direct Solutions
  CarrollMRT;                             !- Zone Radiant Exchange Algorithm

OS:WeatherFile,
  {d97e5571-2fe6-4663-bda0-d617051f36d2}, !- Handle
  Buffalo Niagara Intl Ap,                !- City
  NY,                                     !- State Province Region
  USA,                                    !- Country
  TMY3,                                   !- Data Source
  725280,                                 !- WMO Number
  42.93,                                  !- Latitude {deg}
  -78.73,                                 !- Longitude {deg}
  -5,                                     !- Time Zone {hr}
  215,                                    !- Elevation {m}
  /Users/nmoore/github/urbanopt-example-geojson-project/example_project/weather/USA_NY_Buffalo-Greater.Buffalo.Intl.AP.725280_TMY3.epw, !- Url
  6B50E0FF,                               !- Checksum
  ,                                       !- Start Date Actual Year
  Sunday;                                 !- Start Day of Week

OS:YearDescription,
  {396226e0-a869-4c68-823e-2802426c02cc}, !- Handle
  2007,                                   !- Calendar Year
  ,                                       !- Day of Week for Start Day
  ;                                       !- Is Leap Year

OS:Site,
  {703b4e8d-d51c-43d0-8fcf-5570a24ec294}, !- Handle
  Buffalo Niagara Intl Ap_NY,             !- Name
  42.93,                                  !- Latitude {deg}
  -78.73,                                 !- Longitude {deg}
  -5,                                     !- Time Zone {hr}
  215,                                    !- Elevation {m}
  Suburbs,                                !- Terrain
  Yes;                                    !- Keep Site Location Information

OS:RunPeriodControl:DaylightSavingTime,
  {e4a92ba7-e63b-44e7-b15b-a689791ce32c}, !- Handle
  Mar 12,                                 !- Start Date
  Nov 5;                                  !- End Date

OS:Site:GroundTemperature:Shallow,
  {d05f8355-9a7c-4e46-95e8-5fd9e7a5e787}, !- Handle
  4.30207395723828,                       !- January Surface Ground Temperature {C}
  2.29327249652502,                       !- February Surface Ground Temperature {C}
  2.13240047156047,                       !- March Surface Ground Temperature {C}
  3.08567940719286,                       !- April Surface Ground Temperature {C}
  6.91256312497526,                       !- May Surface Ground Temperature {C}
  10.7216195949507,                       !- June Surface Ground Temperature {C}
  14.0238679822574,                       !- July Surface Ground Temperature {C}
  16.1157611184724,                       !- August Surface Ground Temperature {C}
  16.2934789303462,                       !- September Surface Ground Temperature {C}
  14.5920754632847,                       !- October Surface Ground Temperature {C}
  11.374036348653,                        !- November Surface Ground Temperature {C}
  7.68182621661674;                       !- December Surface Ground Temperature {C}

OS:ThermalZone,
  {4925e62e-cdbf-41b4-8a79-7564661fa83c}, !- Handle
  conditioned space,                      !- Name
  1,                                      !- Multiplier
  ,                                       !- Ceiling Height {m}
  692.06373070848,                        !- Volume {m3}
  ,                                       !- Floor Area {m2}
  ,                                       !- Zone Inside Convection Algorithm
  ,                                       !- Zone Outside Convection Algorithm
  ,                                       !- Zone Conditioning Equipment List Name
  {f95008f3-3373-4269-82d5-69072dd39096}, !- Zone Air Inlet Port List
  {dcfd05cf-9b3e-4abc-ab59-354013d3c0a6}, !- Zone Air Exhaust Port List
  {c4093c01-182f-4dd8-9626-ef87194eaca7}, !- Zone Air Node Name
  {0f04095d-b631-4c99-a3cc-c01304ca3ed8}, !- Zone Return Air Port List
  ,                                       !- Primary Daylighting Control Name
  ,                                       !- Fraction of Zone Controlled by Primary Daylighting Control
  ,                                       !- Secondary Daylighting Control Name
  ,                                       !- Fraction of Zone Controlled by Secondary Daylighting Control
  ,                                       !- Illuminance Map Name
  ,                                       !- Group Rendering Name
  {f0718edb-762c-469f-b25f-69d906240d3b}, !- Thermostat Name
  No;                                     !- Use Ideal Air Loads

OS:Node,
  {fb0e7532-1f9b-4b68-86b6-fc5115526319}, !- Handle
  Node 1,                                 !- Name
  {c4093c01-182f-4dd8-9626-ef87194eaca7}, !- Inlet Port
  ;                                       !- Outlet Port

OS:Connection,
  {c4093c01-182f-4dd8-9626-ef87194eaca7}, !- Handle
  {4925e62e-cdbf-41b4-8a79-7564661fa83c}, !- Source Object
  11,                                     !- Outlet Port
  {fb0e7532-1f9b-4b68-86b6-fc5115526319}, !- Target Object
  2;                                      !- Inlet Port

OS:PortList,
  {f95008f3-3373-4269-82d5-69072dd39096}, !- Handle
  {4925e62e-cdbf-41b4-8a79-7564661fa83c}, !- HVAC Component
  {b1b1dab8-5449-4b5a-af12-036def09b0b6}; !- Port 1

OS:PortList,
  {dcfd05cf-9b3e-4abc-ab59-354013d3c0a6}, !- Handle
  {4925e62e-cdbf-41b4-8a79-7564661fa83c}; !- HVAC Component

OS:PortList,
  {0f04095d-b631-4c99-a3cc-c01304ca3ed8}, !- Handle
  {4925e62e-cdbf-41b4-8a79-7564661fa83c}, !- HVAC Component
  {c4ef6167-a7d9-49ac-b505-f296f6885855}; !- Port 1

OS:Sizing:Zone,
  {91a10374-5aba-4a73-9e35-d1f2fa943e10}, !- Handle
  {4925e62e-cdbf-41b4-8a79-7564661fa83c}, !- Zone or ZoneList Name
  SupplyAirTemperature,                   !- Zone Cooling Design Supply Air Temperature Input Method
  14,                                     !- Zone Cooling Design Supply Air Temperature {C}
  11.11,                                  !- Zone Cooling Design Supply Air Temperature Difference {deltaC}
  SupplyAirTemperature,                   !- Zone Heating Design Supply Air Temperature Input Method
  40,                                     !- Zone Heating Design Supply Air Temperature {C}
  11.11,                                  !- Zone Heating Design Supply Air Temperature Difference {deltaC}
  0.0085,                                 !- Zone Cooling Design Supply Air Humidity Ratio {kg-H2O/kg-air}
  0.008,                                  !- Zone Heating Design Supply Air Humidity Ratio {kg-H2O/kg-air}
  ,                                       !- Zone Heating Sizing Factor
  ,                                       !- Zone Cooling Sizing Factor
  DesignDay,                              !- Cooling Design Air Flow Method
  ,                                       !- Cooling Design Air Flow Rate {m3/s}
  ,                                       !- Cooling Minimum Air Flow per Zone Floor Area {m3/s-m2}
  ,                                       !- Cooling Minimum Air Flow {m3/s}
  ,                                       !- Cooling Minimum Air Flow Fraction
  DesignDay,                              !- Heating Design Air Flow Method
  ,                                       !- Heating Design Air Flow Rate {m3/s}
  ,                                       !- Heating Maximum Air Flow per Zone Floor Area {m3/s-m2}
  ,                                       !- Heating Maximum Air Flow {m3/s}
  ,                                       !- Heating Maximum Air Flow Fraction
  No,                                     !- Account for Dedicated Outdoor Air System
  NeutralSupplyAir,                       !- Dedicated Outdoor Air System Control Strategy
  autosize,                               !- Dedicated Outdoor Air Low Setpoint Temperature for Design {C}
  autosize,                               !- Dedicated Outdoor Air High Setpoint Temperature for Design {C}
  Sensible Load Only No Latent Load,      !- Zone Load Sizing Method
  HumidityRatioDifference,                !- Zone Latent Cooling Design Supply Air Humidity Ratio Input Method
  ,                                       !- Zone Dehumidification Design Supply Air Humidity Ratio {kgWater/kgDryAir}
  0.005,                                  !- Zone Cooling Design Supply Air Humidity Ratio Difference {kgWater/kgDryAir}
  HumidityRatioDifference,                !- Zone Latent Heating Design Supply Air Humidity Ratio Input Method
  ,                                       !- Zone Humidification Design Supply Air Humidity Ratio {kgWater/kgDryAir}
  0.005,                                  !- Zone Humidification Design Supply Air Humidity Ratio Difference {kgWater/kgDryAir}
  ,                                       !- Zone Humidistat Dehumidification Set Point Schedule Name
  ,                                       !- Zone Humidistat Humidification Set Point Schedule Name
  ,                                       !- Design Zone Air Distribution Effectiveness in Cooling Mode
  ,                                       !- Design Zone Air Distribution Effectiveness in Heating Mode
  ,                                       !- Design Zone Secondary Recirculation Fraction {dimensionless}
  ,                                       !- Design Minimum Zone Ventilation Efficiency {dimensionless}
  Coincident;                             !- Sizing Option

OS:ZoneHVAC:EquipmentList,
  {ebc7381d-77e3-471a-ae80-b274126c9243}, !- Handle
  Zone HVAC Equipment List 1,             !- Name
  {4925e62e-cdbf-41b4-8a79-7564661fa83c}, !- Thermal Zone
  ,                                       !- Load Distribution Scheme
  {280a1d2b-1ab7-48e5-85ae-f4e88c26a9e3}, !- Zone Equipment 1
  1,                                      !- Zone Equipment Cooling Sequence 1
  1,                                      !- Zone Equipment Heating or No-Load Sequence 1
  {ce381970-25d4-480f-b0b3-b24dc5a6dbe0}, !- Zone Equipment Sequential Cooling Fraction Schedule Name 1
  {8d157dd9-878c-4af5-aa86-89b108fca05f}; !- Zone Equipment Sequential Heating Fraction Schedule Name 1

OS:AdditionalProperties,
  {de96755d-4e86-4d86-ae53-c096c98b3bc4}, !- Handle
  {4925e62e-cdbf-41b4-8a79-7564661fa83c}, !- Object Name
  ObjectType,                             !- Feature Name 1
  String,                                 !- Feature Data Type 1
  conditioned space;                      !- Feature Value 1

OS:Space,
  {f308e984-72d0-4d9a-8b68-d1ed6f3f5bcc}, !- Handle
  conditioned space 1,                    !- Name
  ,                                       !- Space Type Name
  ,                                       !- Default Construction Set Name
  ,                                       !- Default Schedule Set Name
  ,                                       !- Direction of Relative North {deg}
  ,                                       !- X Origin {m}
  ,                                       !- Y Origin {m}
  ,                                       !- Z Origin {m}
  ,                                       !- Building Story Name
  {4925e62e-cdbf-41b4-8a79-7564661fa83c}, !- Thermal Zone Name
  ,                                       !- Part of Total Floor Area
  ,                                       !- Design Specification Outdoor Air Object Name
  ,                                       !- Building Unit Name
  692.06373070848;                        !- Volume {m3}

OS:Schedule:Ruleset,
  {f3ac8e0e-5baf-46ff-88e1-d8a1b739dccb}, !- Handle
  heating setpoint,                       !- Name
  {8e36cc92-d241-432a-9bb8-9ab6398245f9}, !- Schedule Type Limits Name
  {c94c86b3-4907-44f1-b7e8-d4dd02201c26}; !- Default Day Schedule Name

OS:Schedule:Day,
  {c94c86b3-4907-44f1-b7e8-d4dd02201c26}, !- Handle
  heating setpoint default day,           !- Name
  {8e36cc92-d241-432a-9bb8-9ab6398245f9}, !- Schedule Type Limits Name
  ,                                       !- Interpolate to Timestep
  24,                                     !- Hour 1
  0,                                      !- Minute 1
  0;                                      !- Value Until Time 1

OS:Schedule:Rule,
  {c0d6aa65-95d5-46fe-9111-ea7d97ce3e09}, !- Handle
  heating setpoint allday rule,           !- Name
  {f3ac8e0e-5baf-46ff-88e1-d8a1b739dccb}, !- Schedule Ruleset Name
  0,                                      !- Rule Order
  {0db8e9a0-1f32-4508-bb55-459e682da3b7}, !- Day Schedule Name
  Yes,                                    !- Apply Sunday
  Yes,                                    !- Apply Monday
  Yes,                                    !- Apply Tuesday
  Yes,                                    !- Apply Wednesday
  Yes,                                    !- Apply Thursday
  Yes,                                    !- Apply Friday
  Yes,                                    !- Apply Saturday
  DateRange,                              !- Date Specification Type
  1,                                      !- Start Month
  1,                                      !- Start Day
  12,                                     !- End Month
  31;                                     !- End Day

OS:Schedule:Day,
  {0db8e9a0-1f32-4508-bb55-459e682da3b7}, !- Handle
  heating setpoint day,                   !- Name
  {8e36cc92-d241-432a-9bb8-9ab6398245f9}, !- Schedule Type Limits Name
  ,                                       !- Interpolate to Timestep
  24,                                     !- Hour 1
  0,                                      !- Minute 1
  20;                                     !- Value Until Time 1

OS:Schedule:Ruleset,
  {e9b4fdf3-2ebe-482a-be60-ff6856d46f94}, !- Handle
  cooling setpoint,                       !- Name
  {8e36cc92-d241-432a-9bb8-9ab6398245f9}, !- Schedule Type Limits Name
  {09dc7c46-df49-4f63-a6ed-506f4ec5433c}; !- Default Day Schedule Name

OS:Schedule:Day,
  {09dc7c46-df49-4f63-a6ed-506f4ec5433c}, !- Handle
  cooling setpoint default day,           !- Name
  {8e36cc92-d241-432a-9bb8-9ab6398245f9}, !- Schedule Type Limits Name
  ,                                       !- Interpolate to Timestep
  24,                                     !- Hour 1
  0,                                      !- Minute 1
  0;                                      !- Value Until Time 1

OS:Schedule:Rule,
  {e674ae55-13cf-425e-bede-dec82e516341}, !- Handle
  cooling setpoint allday rule,           !- Name
  {e9b4fdf3-2ebe-482a-be60-ff6856d46f94}, !- Schedule Ruleset Name
  0,                                      !- Rule Order
  {5f84d4a8-8a18-4ce0-a93c-1dc62f8a01a4}, !- Day Schedule Name
  Yes,                                    !- Apply Sunday
  Yes,                                    !- Apply Monday
  Yes,                                    !- Apply Tuesday
  Yes,                                    !- Apply Wednesday
  Yes,                                    !- Apply Thursday
  Yes,                                    !- Apply Friday
  Yes,                                    !- Apply Saturday
  DateRange,                              !- Date Specification Type
  1,                                      !- Start Month
  1,                                      !- Start Day
  12,                                     !- End Month
  31;                                     !- End Day

OS:Schedule:Day,
  {5f84d4a8-8a18-4ce0-a93c-1dc62f8a01a4}, !- Handle
  cooling setpoint day,                   !- Name
  {8e36cc92-d241-432a-9bb8-9ab6398245f9}, !- Schedule Type Limits Name
  ,                                       !- Interpolate to Timestep
  24,                                     !- Hour 1
  0,                                      !- Minute 1
  25.5555555555556;                       !- Value Until Time 1

OS:ThermostatSetpoint:DualSetpoint,
  {f0718edb-762c-469f-b25f-69d906240d3b}, !- Handle
  conditioned space temperature setpoint, !- Name
  {f3ac8e0e-5baf-46ff-88e1-d8a1b739dccb}, !- Heating Setpoint Temperature Schedule Name
  {e9b4fdf3-2ebe-482a-be60-ff6856d46f94}, !- Cooling Setpoint Temperature Schedule Name
  0;                                      !- Temperature Difference Between Cutout And Setpoint {deltaC}

OS:ScheduleTypeLimits,
  {8e36cc92-d241-432a-9bb8-9ab6398245f9}, !- Handle
  Temperature,                            !- Name
  ,                                       !- Lower Limit Value
  ,                                       !- Upper Limit Value
  Continuous,                             !- Numeric Type
  Temperature;                            !- Unit Type

OS:Surface,
  {da01972c-4d1f-4333-a622-e80624efd299}, !- Handle
  Roof1,                                  !- Name
  RoofCeiling,                            !- Surface Type
  {df8d4288-e8fa-4ed1-896e-394747ef5b95}, !- Construction Name
  {6183f2c9-c2ab-44bd-aaa3-20ac2b375de2}, !- Space Name
  Outdoors,                               !- Outside Boundary Condition
  ,                                       !- Outside Boundary Condition Object
  SunExposed,                             !- Sun Exposure
  WindExposed,                            !- Wind Exposure
  ,                                       !- View Factor to Ground
  ,                                       !- Number of Vertices
  -26.9347048849634, 58.0557891618865, 2.4384, !- X,Y,Z Vertex 1 {m}
  -26.9347048849634, 46.7895631136661, 8.0715130241102, !- X,Y,Z Vertex 2 {m}
  -14.3386812381136, 46.7895631136661, 8.0715130241102, !- X,Y,Z Vertex 3 {m}
  -14.3386812381136, 58.0557891618865, 2.4384; !- X,Y,Z Vertex 4 {m}

OS:AdditionalProperties,
  {ff63f7af-aa3e-4f1c-be0c-0b64d15e5dd2}, !- Handle
  {da01972c-4d1f-4333-a622-e80624efd299}, !- Object Name
  Length,                                 !- Feature Name 1
  Double,                                 !- Feature Data Type 1
  41.325536899113608,                     !- Feature Value 1
  Width,                                  !- Feature Name 2
  Double,                                 !- Feature Data Type 2
  41.325536899113601,                     !- Feature Value 2
  Azimuth,                                !- Feature Name 3
  Integer,                                !- Feature Data Type 3
  0,                                      !- Feature Value 3
  Tilt,                                   !- Feature Name 4
  Double,                                 !- Feature Data Type 4
  0.5,                                    !- Feature Value 4
  SurfaceType,                            !- Feature Name 5
  String,                                 !- Feature Data Type 5
  Roof;                                   !- Feature Value 5

OS:ThermalZone,
  {7b46d795-74fc-47c0-9596-c6f0112f3224}, !- Handle
  attic - vented,                         !- Name
  1,                                      !- Multiplier
  ,                                       !- Ceiling Height {m}
  356.389957095237,                       !- Volume {m3}
  ,                                       !- Floor Area {m2}
  ,                                       !- Zone Inside Convection Algorithm
  ,                                       !- Zone Outside Convection Algorithm
  ,                                       !- Zone Conditioning Equipment List Name
  {8266185a-6b05-43e8-bd68-238c35084cab}, !- Zone Air Inlet Port List
  {5a6f753d-2a5f-4907-bf05-916a42fd0f97}, !- Zone Air Exhaust Port List
  {86c79484-f5dc-4b73-a7a0-278043bc9571}, !- Zone Air Node Name
  {74bdd02b-9895-47a7-9480-816116b2a833}, !- Zone Return Air Port List
  ,                                       !- Primary Daylighting Control Name
  ,                                       !- Fraction of Zone Controlled by Primary Daylighting Control
  ,                                       !- Secondary Daylighting Control Name
  ,                                       !- Fraction of Zone Controlled by Secondary Daylighting Control
  ,                                       !- Illuminance Map Name
  ,                                       !- Group Rendering Name
  ,                                       !- Thermostat Name
  No;                                     !- Use Ideal Air Loads

OS:Node,
  {793a6eb5-bb90-4942-890a-f6283ab65753}, !- Handle
  Node 2,                                 !- Name
  {86c79484-f5dc-4b73-a7a0-278043bc9571}, !- Inlet Port
  ;                                       !- Outlet Port

OS:Connection,
  {86c79484-f5dc-4b73-a7a0-278043bc9571}, !- Handle
  {7b46d795-74fc-47c0-9596-c6f0112f3224}, !- Source Object
  11,                                     !- Outlet Port
  {793a6eb5-bb90-4942-890a-f6283ab65753}, !- Target Object
  2;                                      !- Inlet Port

OS:PortList,
  {8266185a-6b05-43e8-bd68-238c35084cab}, !- Handle
  {7b46d795-74fc-47c0-9596-c6f0112f3224}; !- HVAC Component

OS:PortList,
  {5a6f753d-2a5f-4907-bf05-916a42fd0f97}, !- Handle
  {7b46d795-74fc-47c0-9596-c6f0112f3224}; !- HVAC Component

OS:PortList,
  {74bdd02b-9895-47a7-9480-816116b2a833}, !- Handle
  {7b46d795-74fc-47c0-9596-c6f0112f3224}; !- HVAC Component

OS:Sizing:Zone,
  {7db70aa5-33e5-403d-832f-b3c384ef84ed}, !- Handle
  {7b46d795-74fc-47c0-9596-c6f0112f3224}, !- Zone or ZoneList Name
  SupplyAirTemperature,                   !- Zone Cooling Design Supply Air Temperature Input Method
  14,                                     !- Zone Cooling Design Supply Air Temperature {C}
  11.11,                                  !- Zone Cooling Design Supply Air Temperature Difference {deltaC}
  SupplyAirTemperature,                   !- Zone Heating Design Supply Air Temperature Input Method
  40,                                     !- Zone Heating Design Supply Air Temperature {C}
  11.11,                                  !- Zone Heating Design Supply Air Temperature Difference {deltaC}
  0.0085,                                 !- Zone Cooling Design Supply Air Humidity Ratio {kg-H2O/kg-air}
  0.008,                                  !- Zone Heating Design Supply Air Humidity Ratio {kg-H2O/kg-air}
  ,                                       !- Zone Heating Sizing Factor
  ,                                       !- Zone Cooling Sizing Factor
  DesignDay,                              !- Cooling Design Air Flow Method
  ,                                       !- Cooling Design Air Flow Rate {m3/s}
  ,                                       !- Cooling Minimum Air Flow per Zone Floor Area {m3/s-m2}
  ,                                       !- Cooling Minimum Air Flow {m3/s}
  ,                                       !- Cooling Minimum Air Flow Fraction
  DesignDay,                              !- Heating Design Air Flow Method
  ,                                       !- Heating Design Air Flow Rate {m3/s}
  ,                                       !- Heating Maximum Air Flow per Zone Floor Area {m3/s-m2}
  ,                                       !- Heating Maximum Air Flow {m3/s}
  ,                                       !- Heating Maximum Air Flow Fraction
  No,                                     !- Account for Dedicated Outdoor Air System
  NeutralSupplyAir,                       !- Dedicated Outdoor Air System Control Strategy
  autosize,                               !- Dedicated Outdoor Air Low Setpoint Temperature for Design {C}
  autosize,                               !- Dedicated Outdoor Air High Setpoint Temperature for Design {C}
  Sensible Load Only No Latent Load,      !- Zone Load Sizing Method
  HumidityRatioDifference,                !- Zone Latent Cooling Design Supply Air Humidity Ratio Input Method
  ,                                       !- Zone Dehumidification Design Supply Air Humidity Ratio {kgWater/kgDryAir}
  0.005,                                  !- Zone Cooling Design Supply Air Humidity Ratio Difference {kgWater/kgDryAir}
  HumidityRatioDifference,                !- Zone Latent Heating Design Supply Air Humidity Ratio Input Method
  ,                                       !- Zone Humidification Design Supply Air Humidity Ratio {kgWater/kgDryAir}
  0.005,                                  !- Zone Humidification Design Supply Air Humidity Ratio Difference {kgWater/kgDryAir}
  ,                                       !- Zone Humidistat Dehumidification Set Point Schedule Name
  ,                                       !- Zone Humidistat Humidification Set Point Schedule Name
  ,                                       !- Design Zone Air Distribution Effectiveness in Cooling Mode
  ,                                       !- Design Zone Air Distribution Effectiveness in Heating Mode
  ,                                       !- Design Zone Secondary Recirculation Fraction {dimensionless}
  ,                                       !- Design Minimum Zone Ventilation Efficiency {dimensionless}
  Coincident;                             !- Sizing Option

OS:ZoneHVAC:EquipmentList,
  {cf385508-1030-4c80-b475-e5cef07dca57}, !- Handle
  Zone HVAC Equipment List 2,             !- Name
  {7b46d795-74fc-47c0-9596-c6f0112f3224}; !- Thermal Zone

OS:AdditionalProperties,
  {cb815dfa-c34c-4c8c-8ac9-1191f7e33eb9}, !- Handle
  {7b46d795-74fc-47c0-9596-c6f0112f3224}, !- Object Name
  ObjectType,                             !- Feature Name 1
  String,                                 !- Feature Data Type 1
  attic - vented;                         !- Feature Value 1

OS:Space,
  {6183f2c9-c2ab-44bd-aaa3-20ac2b375de2}, !- Handle
  attic - vented 1,                       !- Name
  ,                                       !- Space Type Name
  ,                                       !- Default Construction Set Name
  ,                                       !- Default Schedule Set Name
  ,                                       !- Direction of Relative North {deg}
  ,                                       !- X Origin {m}
  ,                                       !- Y Origin {m}
  ,                                       !- Z Origin {m}
  ,                                       !- Building Story Name
  {7b46d795-74fc-47c0-9596-c6f0112f3224}, !- Thermal Zone Name
  ,                                       !- Part of Total Floor Area
  ,                                       !- Design Specification Outdoor Air Object Name
  ,                                       !- Building Unit Name
  356.389957095237;                       !- Volume {m3}

OS:Material,
  {49a5fcb6-3417-4692-822f-79dfc8811ec1}, !- Handle
  asphalt or fiberglass shingles,         !- Name
  Rough,                                  !- Roughness
  0.00635,                                !- Thickness {m}
  0.162714,                               !- Conductivity {W/m-K}
  1121.4,                                 !- Density {kg/m3}
  1465.45,                                !- Specific Heat {J/kg-K}
  0.9,                                    !- Thermal Absorptance
  0.85,                                   !- Solar Absorptance