
OS:Version,
  {2e9274e4-8b04-459b-8cc3-0f2a14baa703}, !- Handle
  3.10.0;                                 !- Version Identifier

OS:SimulationControl,
  {97ce0474-215b-437d-be6b-1f2bce2fcf49}, !- Handle
  ,                                       !- Do Zone Sizing Calculation
  ,                                       !- Do System Sizing Calculation
  ,                                       !- Do Plant Sizing Calculation
  No;                                     !- Run Simulation for Sizing Periods

OS:Timestep,
  {8bc54d20-2f54-4d01-a972-23ce42b7927b}, !- Handle
  1;                                      !- Number of Timesteps per Hour

OS:ShadowCalculation,
  {034189f5-d070-4958-a7c3-90b8e50ad882}, !- Handle
  PolygonClipping,                        !- Shading Calculation Method
  ,                                       !- Shading Calculation Update Frequency Method
  20,                                     !- Shading Calculation Update Frequency
  200,                                    !- Maximum Figures in Shadow Overlap Calculations
  ,                                       !- Polygon Clipping Algorithm
  512,                                    !- Pixel Counting Resolution
  ,                                       !- Sky Diffuse Modeling Algorithm
  No,                                     !- Output External Shading Calculation Results
  No,                                     !- Disable Self-Shading Within Shading Zone Groups
  No;                                     !- Disable Self-Shading From Shading Zone Groups to Other Zones

OS:SurfaceConvectionAlgorithm:Outside,
  {ae6a8c7e-2387-4354-a0ff-883b510250ca}, !- Handle
  DOE-2;                                  !- Algorithm

OS:SurfaceConvectionAlgorithm:Inside,
  {80fd288d-b064-47be-a6d3-af11542bfb0f}, !- Handle
  TARP;                                   !- Algorithm

OS:ZoneCapacitanceMultiplier:ResearchSpecial,
  {13b44efb-7d3b-401c-9014-4dc7e778cb4c}, !- Handle
  7,                                      !- Temperature Capacity Multiplier
  15,                                     !- Humidity Capacity Multiplier
  ;                                       !- Carbon Dioxide Capacity Multiplier

OS:ConvergenceLimits,
  {a08e5592-b474-4084-bc03-59214ea478b7}, !- Handle
  0;                                      !- Minimum System Timestep {minutes}

OS:RunPeriod,
  {7d4493f9-1e46-4241-ab9f-7ef7f3c6b938}, !- Handle
  Run Period 1,                           !- Name
  1,                                      !- Begin Month
  1,                                      !- Begin Day of Month
  12,                                     !- End Month
  31,                                     !- End Day of Month
  ,                                       !- Use Weather File Holidays and Special Days
  ,                                       !- Use Weather File Daylight Saving Period
  ,                                       !- Apply Weekend Holiday Rule
  ,                                       !- Use Weather File Rain Indicators
  ,                                       !- Use Weather File Snow Indicators
  ;                                       !- Number of Times Runperiod to be Repeated

OS:PerformancePrecisionTradeoffs,
  {ea09f98c-ee7d-4fee-a857-c3ce780e7cb6}, !- Handle
  ,                                       !- Use Coil Direct Solutions
  CarrollMRT;                             !- Zone Radiant Exchange Algorithm

OS:WeatherFile,
  {25092e23-0861-4f5a-a446-33fd8d034f1e}, !- Handle
  Buffalo Niagara Intl Ap,                !- City
  NY,                                     !- State Province Region
  USA,                                    !- Country
  TMY3,                                   !- Data Source
  725280,                                 !- WMO Number
  42.93,                                  !- Latitude {deg}
  -78.73,                                 !- Longitude {deg}
  -5,                                     !- Time Zone {hr}
  215,                                    !- Elevation {m}
  /Users/nmoore/github/urbanopt-example-geojson-project/example_project/weather/USA_NY_Buffalo-Greater.Buffalo.Intl.AP.725280_TMY3.epw, !- Url
  6B50E0FF,                               !- Checksum
  ,                                       !- Start Date Actual Year
  Sunday;                                 !- Start Day of Week

OS:YearDescription,
  {90a159ae-ced8-49c7-bd19-e82102446e7e}, !- Handle
  2007,                                   !- Calendar Year
  ,                                       !- Day of Week for Start Day
  ;                                       !- Is Leap Year

OS:Site,
  {dcfda195-e480-45ec-a8cb-c13bba93b695}, !- Handle
  Buffalo Niagara Intl Ap_NY,             !- Name
  42.93,                                  !- Latitude {deg}
  -78.73,                                 !- Longitude {deg}
  -5,                                     !- Time Zone {hr}
  215,                                    !- Elevation {m}
  Suburbs,                                !- Terrain
  Yes;                                    !- Keep Site Location Information

OS:RunPeriodControl:DaylightSavingTime,
  {ef841fed-0fe2-4214-8a92-ccae138f9968}, !- Handle
  Mar 12,                                 !- Start Date
  Nov 5;                                  !- End Date

OS:Site:GroundTemperature:Shallow,
  {59a79f18-47d7-433b-9098-e3dc2e9f4db7}, !- Handle
  4.30207395723828,                       !- January Surface Ground Temperature {C}
  2.29327249652502,                       !- February Surface Ground Temperature {C}
  2.13240047156047,                       !- March Surface Ground Temperature {C}
  3.08567940719286,                       !- April Surface Ground Temperature {C}
  6.91256312497526,                       !- May Surface Ground Temperature {C}
  10.7216195949507,                       !- June Surface Ground Temperature {C}
  14.0238679822574,                       !- July Surface Ground Temperature {C}
  16.1157611184724,                       !- August Surface Ground Temperature {C}
  16.2934789303462,                       !- September Surface Ground Temperature {C}
  14.5920754632847,                       !- October Surface Ground Temperature {C}
  11.374036348653,                        !- November Surface Ground Temperature {C}
  7.68182621661674;                       !- December Surface Ground Temperature {C}

OS:ThermalZone,
  {77d302f2-3938-4a48-9bde-aa09844159b1}, !- Handle
  conditioned space,                      !- Name
  1,                                      !- Multiplier
  ,                                       !- Ceiling Height {m}
  692.06373070848,                        !- Volume {m3}
  ,                                       !- Floor Area {m2}
  ,                                       !- Zone Inside Convection Algorithm
  ,                                       !- Zone Outside Convection Algorithm
  ,                                       !- Zone Conditioning Equipment List Name
  {e36eeb45-eaae-485e-86d1-d5eeb05dbdd4}, !- Zone Air Inlet Port List
  {71735691-deb4-45c2-a501-d337a7517c77}, !- Zone Air Exhaust Port List
  {8527ec46-c07f-4ec1-b594-d11a5c4c0f92}, !- Zone Air Node Name
  {143e3c9e-b4be-416d-bc8d-a6a10ac1f770}, !- Zone Return Air Port List
  ,                                       !- Primary Daylighting Control Name
  ,                                       !- Fraction of Zone Controlled by Primary Daylighting Control
  ,                                       !- Secondary Daylighting Control Name
  ,                                       !- Fraction of Zone Controlled by Secondary Daylighting Control
  ,                                       !- Illuminance Map Name
  ,                                       !- Group Rendering Name
  {12cefae8-5263-4006-bfbc-d4f915aa9bb5}, !- Thermostat Name
  No;                                     !- Use Ideal Air Loads

OS:Node,
  {256813d4-7e9c-484d-95eb-57a049ff38ac}, !- Handle
  Node 1,                                 !- Name
  {8527ec46-c07f-4ec1-b594-d11a5c4c0f92}, !- Inlet Port
  ;                                       !- Outlet Port

OS:Connection,
  {8527ec46-c07f-4ec1-b594-d11a5c4c0f92}, !- Handle
  {77d302f2-3938-4a48-9bde-aa09844159b1}, !- Source Object
  11,                                     !- Outlet Port
  {256813d4-7e9c-484d-95eb-57a049ff38ac}, !- Target Object
  2;                                      !- Inlet Port

OS:PortList,
  {e36eeb45-eaae-485e-86d1-d5eeb05dbdd4}, !- Handle
  {77d302f2-3938-4a48-9bde-aa09844159b1}, !- HVAC Component
  {bcd9ffd1-edb6-41fb-97c6-a9827dc93f34}; !- Port 1

OS:PortList,
  {71735691-deb4-45c2-a501-d337a7517c77}, !- Handle
  {77d302f2-3938-4a48-9bde-aa09844159b1}; !- HVAC Component

OS:PortList,
  {143e3c9e-b4be-416d-bc8d-a6a10ac1f770}, !- Handle
  {77d302f2-3938-4a48-9bde-aa09844159b1}, !- HVAC Component
  {10dca28d-dd8c-41f6-9a2c-06489ca1b158}; !- Port 1

OS:Sizing:Zone,
  {e07dde48-62bb-400c-9879-b03195d4ff2d}, !- Handle
  {77d302f2-3938-4a48-9bde-aa09844159b1}, !- Zone or ZoneList Name
  SupplyAirTemperature,                   !- Zone Cooling Design Supply Air Temperature Input Method
  14,                                     !- Zone Cooling Design Supply Air Temperature {C}
  11.11,                                  !- Zone Cooling Design Supply Air Temperature Difference {deltaC}
  SupplyAirTemperature,                   !- Zone Heating Design Supply Air Temperature Input Method
  40,                                     !- Zone Heating Design Supply Air Temperature {C}
  11.11,                                  !- Zone Heating Design Supply Air Temperature Difference {deltaC}
  0.0085,                                 !- Zone Cooling Design Supply Air Humidity Ratio {kg-H2O/kg-air}
  0.008,                                  !- Zone Heating Design Supply Air Humidity Ratio {kg-H2O/kg-air}
  ,                                       !- Zone Heating Sizing Factor
  ,                                       !- Zone Cooling Sizing Factor
  DesignDay,                              !- Cooling Design Air Flow Method
  ,                                       !- Cooling Design Air Flow Rate {m3/s}
  ,                                       !- Cooling Minimum Air Flow per Zone Floor Area {m3/s-m2}
  ,                                       !- Cooling Minimum Air Flow {m3/s}
  ,                                       !- Cooling Minimum Air Flow Fraction
  DesignDay,                              !- Heating Design Air Flow Method
  ,                                       !- Heating Design Air Flow Rate {m3/s}
  ,                                       !- Heating Maximum Air Flow per Zone Floor Area {m3/s-m2}
  ,                                       !- Heating Maximum Air Flow {m3/s}
  ,                                       !- Heating Maximum Air Flow Fraction
  No,                                     !- Account for Dedicated Outdoor Air System
  NeutralSupplyAir,                       !- Dedicated Outdoor Air System Control Strategy
  autosize,                               !- Dedicated Outdoor Air Low Setpoint Temperature for Design {C}
  autosize,                               !- Dedicated Outdoor Air High Setpoint Temperature for Design {C}
  Sensible Load Only No Latent Load,      !- Zone Load Sizing Method
  HumidityRatioDifference,                !- Zone Latent Cooling Design Supply Air Humidity Ratio Input Method
  ,                                       !- Zone Dehumidification Design Supply Air Humidity Ratio {kgWater/kgDryAir}
  0.005,                                  !- Zone Cooling Design Supply Air Humidity Ratio Difference {kgWater/kgDryAir}
  HumidityRatioDifference,                !- Zone Latent Heating Design Supply Air Humidity Ratio Input Method
  ,                                       !- Zone Humidification Design Supply Air Humidity Ratio {kgWater/kgDryAir}
  0.005,                                  !- Zone Humidification Design Supply Air Humidity Ratio Difference {kgWater/kgDryAir}
  ,                                       !- Zone Humidistat Dehumidification Set Point Schedule Name
  ,                                       !- Zone Humidistat Humidification Set Point Schedule Name
  ,                                       !- Design Zone Air Distribution Effectiveness in Cooling Mode
  ,                                       !- Design Zone Air Distribution Effectiveness in Heating Mode
  ,                                       !- Design Zone Secondary Recirculation Fraction {dimensionless}
  ,                                       !- Design Minimum Zone Ventilation Efficiency {dimensionless}
  Coincident;                             !- Sizing Option

OS:ZoneHVAC:EquipmentList,
  {1b3fc791-73bb-41ef-9b8c-3bb0e7fd88f6}, !- Handle
  Zone HVAC Equipment List 1,             !- Name
  {77d302f2-3938-4a48-9bde-aa09844159b1}, !- Thermal Zone
  ,                                       !- Load Distribution Scheme
  {be5f87aa-4e98-417a-a3a7-1157eb2c322e}, !- Zone Equipment 1
  1,                                      !- Zone Equipment Cooling Sequence 1
  1,                                      !- Zone Equipment Heating or No-Load Sequence 1
  {ba1a2d45-740b-4685-ad20-b7240674012d}, !- Zone Equipment Sequential Cooling Fraction Schedule Name 1
  {93220597-4715-4210-b68a-151c4e63972c}; !- Zone Equipment Sequential Heating Fraction Schedule Name 1

OS:AdditionalProperties,
  {48285b5b-908a-4897-997f-e0c386875db1}, !- Handle
  {77d302f2-3938-4a48-9bde-aa09844159b1}, !- Object Name
  ObjectType,                             !- Feature Name 1
  String,                                 !- Feature Data Type 1
  conditioned space;                      !- Feature Value 1

OS:Space,
  {12a20f1f-a5ae-491f-b593-5fa5f3296418}, !- Handle
  conditioned space 1,                    !- Name
  ,                                       !- Space Type Name
  ,                                       !- Default Construction Set Name
  ,                                       !- Default Schedule Set Name
  ,                                       !- Direction of Relative North {deg}
  ,                                       !- X Origin {m}
  ,                                       !- Y Origin {m}
  ,                                       !- Z Origin {m}
  ,                                       !- Building Story Name
  {77d302f2-3938-4a48-9bde-aa09844159b1}, !- Thermal Zone Name
  ,                                       !- Part of Total Floor Area
  ,                                       !- Design Specification Outdoor Air Object Name
  ,                                       !- Building Unit Name
  692.06373070848;                        !- Volume {m3}

OS:Schedule:Ruleset,
  {3966f46a-04e9-4c3c-b5be-341de0301445}, !- Handle
  heating setpoint,                       !- Name
  {88429907-b3e1-4b69-bbae-4ac2ab1a6316}, !- Schedule Type Limits Name
  {83b5a84e-a3d5-4712-884d-fcfbede1d53a}; !- Default Day Schedule Name

OS:Schedule:Day,
  {83b5a84e-a3d5-4712-884d-fcfbede1d53a}, !- Handle
  heating setpoint default day,           !- Name
  {88429907-b3e1-4b69-bbae-4ac2ab1a6316}, !- Schedule Type Limits Name
  ,                                       !- Interpolate to Timestep
  24,                                     !- Hour 1
  0,                                      !- Minute 1
  0;                                      !- Value Until Time 1

OS:Schedule:Rule,
  {1ede17f6-c67a-446b-81d9-fc60866c267f}, !- Handle
  heating setpoint allday rule,           !- Name
  {3966f46a-04e9-4c3c-b5be-341de0301445}, !- Schedule Ruleset Name
  0,                                      !- Rule Order
  {a9903195-c54e-42a0-a4a2-399e458fe0e6}, !- Day Schedule Name
  Yes,                                    !- Apply Sunday
  Yes,                                    !- Apply Monday
  Yes,                                    !- Apply Tuesday
  Yes,                                    !- Apply Wednesday
  Yes,                                    !- Apply Thursday
  Yes,                                    !- Apply Friday
  Yes,                                    !- Apply Saturday
  DateRange,                              !- Date Specification Type
  1,                                      !- Start Month
  1,                                      !- Start Day
  12,                                     !- End Month
  31;                                     !- End Day

OS:Schedule:Day,
  {a9903195-c54e-42a0-a4a2-399e458fe0e6}, !- Handle
  heating setpoint day,                   !- Name
  {88429907-b3e1-4b69-bbae-4ac2ab1a6316}, !- Schedule Type Limits Name
  ,                                       !- Interpolate to Timestep
  24,                                     !- Hour 1
  0,                                      !- Minute 1
  20;                                     !- Value Until Time 1

OS:Schedule:Ruleset,
  {b490a4bb-0688-49d3-86b5-b8be5f4acb5f}, !- Handle
  cooling setpoint,                       !- Name
  {88429907-b3e1-4b69-bbae-4ac2ab1a6316}, !- Schedule Type Limits Name
  {0e83aead-e165-4d37-bf5f-c1cd3f035e8f}; !- Default Day Schedule Name

OS:Schedule:Day,
  {0e83aead-e165-4d37-bf5f-c1cd3f035e8f}, !- Handle
  cooling setpoint default day,           !- Name
  {88429907-b3e1-4b69-bbae-4ac2ab1a6316}, !- Schedule Type Limits Name
  ,                                       !- Interpolate to Timestep
  24,                                     !- Hour 1
  0,                                      !- Minute 1
  0;                                      !- Value Until Time 1

OS:Schedule:Rule,
  {f8c652db-a31b-4fa5-ad9f-aa3761621686}, !- Handle
  cooling setpoint allday rule,           !- Name
  {b490a4bb-0688-49d3-86b5-b8be5f4acb5f}, !- Schedule Ruleset Name
  0,                                      !- Rule Order
  {60c3123a-8067-4762-99d2-48c844dbecef}, !- Day Schedule Name
  Yes,                                    !- Apply Sunday
  Yes,                                    !- Apply Monday
  Yes,                                    !- Apply Tuesday
  Yes,                                    !- Apply Wednesday
  Yes,                                    !- Apply Thursday
  Yes,                                    !- Apply Friday
  Yes,                                    !- Apply Saturday
  DateRange,                              !- Date Specification Type
  1,                                      !- Start Month
  1,                                      !- Start Day
  12,                                     !- End Month
  31;                                     !- End Day

OS:Schedule:Day,
  {60c3123a-8067-4762-99d2-48c844dbecef}, !- Handle
  cooling setpoint day,                   !- Name
  {88429907-b3e1-4b69-bbae-4ac2ab1a6316}, !- Schedule Type Limits Name
  ,                                       !- Interpolate to Timestep
  24,                                     !- Hour 1
  0,                                      !- Minute 1
  25.5555555555556;                       !- Value Until Time 1

OS:ThermostatSetpoint:DualSetpoint,
  {12cefae8-5263-4006-bfbc-d4f915aa9bb5}, !- Handle
  conditioned space temperature setpoint, !- Name
  {3966f46a-04e9-4c3c-b5be-341de0301445}, !- Heating Setpoint Temperature Schedule Name
  {b490a4bb-0688-49d3-86b5-b8be5f4acb5f}, !- Cooling Setpoint Temperature Schedule Name
  0;                                      !- Temperature Difference Between Cutout And Setpoint {deltaC}

OS:ScheduleTypeLimits,
  {88429907-b3e1-4b69-bbae-4ac2ab1a6316}, !- Handle
  Temperature,                            !- Name
  ,                                       !- Lower Limit Value
  ,                                       !- Upper Limit Value
  Continuous,                             !- Numeric Type
  Temperature;                            !- Unit Type

OS:Surface,
  {9e22a1c4-e6c5-46fa-9430-50561c46ca39}, !- Handle
  Roof1,                                  !- Name
  RoofCeiling,                            !- Surface Type
  {c4dae00a-56e9-4c31-a260-6d267464fcef}, !- Construction Name
  {509c60c2-fda9-44c8-89ed-268ef6d73e76}, !- Space Name
  Outdoors,                               !- Outside Boundary Condition
  ,                                       !- Outside Boundary Condition Object
  SunExposed,                             !- Sun Exposure
  WindExposed,                            !- Wind Exposure
  ,                                       !- View Factor to Ground
  ,                                       !- Number of Vertices
  -26.9347048849634, 58.0557891618865, 2.4384, !- X,Y,Z Vertex 1 {m}
  -26.9347048849634, 46.7895631136661, 8.0715130241102, !- X,Y,Z Vertex 2 {m}
  -14.3386812381136, 46.7895631136661, 8.0715130241102, !- X,Y,Z Vertex 3 {m}
  -14.3386812381136, 58.0557891618865, 2.4384; !- X,Y,Z Vertex 4 {m}

OS:AdditionalProperties,
  {70c14eda-2620-4e63-b47c-e0a339aa81d6}, !- Handle
  {9e22a1c4-e6c5-46fa-9430-50561c46ca39}, !- Object Name
  Length,                                 !- Feature Name 1
  Double,                                 !- Feature Data Type 1
  41.325536899113608,                     !- Feature Value 1
  Width,                                  !- Feature Name 2
  Double,                                 !- Feature Data Type 2
  41.325536899113601,                     !- Feature Value 2
  Azimuth,                                !- Feature Name 3
  Integer,                                !- Feature Data Type 3
  0,                                      !- Feature Value 3
  Tilt,                                   !- Feature Name 4
  Double,                                 !- Feature Data Type 4
  0.5,                                    !- Feature Value 4
  SurfaceType,                            !- Feature Name 5
  String,                                 !- Feature Data Type 5
  Roof;                                   !- Feature Value 5

OS:ThermalZone,
  {05006f59-a7e9-4584-a2e9-f16aabdb9faa}, !- Handle
  attic - vented,                         !- Name
  1,                                      !- Multiplier
  ,                                       !- Ceiling Height {m}
  356.390921899745,                       !- Volume {m3}
  ,                                       !- Floor Area {m2}
  ,                                       !- Zone Inside Convection Algorithm
  ,                                       !- Zone Outside Convection Algorithm
  ,                                       !- Zone Conditioning Equipment List Name
  {c3ae2e8e-0213-4ad4-a3c6-b0caa2dc5f2a}, !- Zone Air Inlet Port List
  {100382ea-e179-483c-8d5e-9599719cc167}, !- Zone Air Exhaust Port List
  {f0e8d4d1-1110-453d-a4d0-41c626faa6af}, !- Zone Air Node Name
  {574d2d8d-21a2-450a-b1b6-69c736ce7bcf}, !- Zone Return Air Port List
  ,                                       !- Primary Daylighting Control Name
  ,                                       !- Fraction of Zone Controlled by Primary Daylighting Control
  ,                                       !- Secondary Daylighting Control Name
  ,                                       !- Fraction of Zone Controlled by Secondary Daylighting Control
  ,                                       !- Illuminance Map Name
  ,                                       !- Group Rendering Name
  ,                                       !- Thermostat Name
  No;                                     !- Use Ideal Air Loads

OS:Node,
  {af2b4ff8-8dc9-485d-9300-97452d780cfe}, !- Handle
  Node 2,                                 !- Name
  {f0e8d4d1-1110-453d-a4d0-41c626faa6af}, !- Inlet Port
  ;                                       !- Outlet Port

OS:Connection,
  {f0e8d4d1-1110-453d-a4d0-41c626faa6af}, !- Handle
  {05006f59-a7e9-4584-a2e9-f16aabdb9faa}, !- Source Object
  11,                                     !- Outlet Port
  {af2b4ff8-8dc9-485d-9300-97452d780cfe}, !- Target Object
  2;                                      !- Inlet Port

OS:PortList,
  {c3ae2e8e-0213-4ad4-a3c6-b0caa2dc5f2a}, !- Handle
  {05006f59-a7e9-4584-a2e9-f16aabdb9faa}; !- HVAC Component

OS:PortList,
  {100382ea-e179-483c-8d5e-9599719cc167}, !- Handle
  {05006f59-a7e9-4584-a2e9-f16aabdb9faa}; !- HVAC Component

OS:PortList,
  {574d2d8d-21a2-450a-b1b6-69c736ce7bcf}, !- Handle
  {05006f59-a7e9-4584-a2e9-f16aabdb9faa}; !- HVAC Component

OS:Sizing:Zone,
  {474bfbc2-5173-4bcf-bd2e-fbaf1dbfb64c}, !- Handle
  {05006f59-a7e9-4584-a2e9-f16aabdb9faa}, !- Zone or ZoneList Name
  SupplyAirTemperature,                   !- Zone Cooling Design Supply Air Temperature Input Method
  14,                                     !- Zone Cooling Design Supply Air Temperature {C}
  11.11,                                  !- Zone Cooling Design Supply Air Temperature Difference {deltaC}
  SupplyAirTemperature,                   !- Zone Heating Design Supply Air Temperature Input Method
  40,                                     !- Zone Heating Design Supply Air Temperature {C}
  11.11,                                  !- Zone Heating Design Supply Air Temperature Difference {deltaC}
  0.0085,                                 !- Zone Cooling Design Supply Air Humidity Ratio {kg-H2O/kg-air}
  0.008,                                  !- Zone Heating Design Supply Air Humidity Ratio {kg-H2O/kg-air}
  ,                                       !- Zone Heating Sizing Factor
  ,                                       !- Zone Cooling Sizing Factor
  DesignDay,                              !- Cooling Design Air Flow Method
  ,                                       !- Cooling Design Air Flow Rate {m3/s}
  ,                                       !- Cooling Minimum Air Flow per Zone Floor Area {m3/s-m2}
  ,                                       !- Cooling Minimum Air Flow {m3/s}
  ,                                       !- Cooling Minimum Air Flow Fraction
  DesignDay,                              !- Heating Design Air Flow Method
  ,                                       !- Heating Design Air Flow Rate {m3/s}
  ,                                       !- Heating Maximum Air Flow per Zone Floor Area {m3/s-m2}
  ,                                       !- Heating Maximum Air Flow {m3/s}
  ,                                       !- Heating Maximum Air Flow Fraction
  No,                                     !- Account for Dedicated Outdoor Air System
  NeutralSupplyAir,                       !- Dedicated Outdoor Air System Control Strategy
  autosize,                               !- Dedicated Outdoor Air Low Setpoint Temperature for Design {C}
  autosize,                               !- Dedicated Outdoor Air High Setpoint Temperature for Design {C}
  Sensible Load Only No Latent Load,      !- Zone Load Sizing Method
  HumidityRatioDifference,                !- Zone Latent Cooling Design Supply Air Humidity Ratio Input Method
  ,                                       !- Zone Dehumidification Design Supply Air Humidity Ratio {kgWater/kgDryAir}
  0.005,                                  !- Zone Cooling Design Supply Air Humidity Ratio Difference {kgWater/kgDryAir}
  HumidityRatioDifference,                !- Zone Latent Heating Design Supply Air Humidity Ratio Input Method
  ,                                       !- Zone Humidification Design Supply Air Humidity Ratio {kgWater/kgDryAir}
  0.005,                                  !- Zone Humidification Design Supply Air Humidity Ratio Difference {kgWater/kgDryAir}
  ,                                       !- Zone Humidistat Dehumidification Set Point Schedule Name
  ,                                       !- Zone Humidistat Humidification Set Point Schedule Name
  ,                                       !- Design Zone Air Distribution Effectiveness in Cooling Mode
  ,                                       !- Design Zone Air Distribution Effectiveness in Heating Mode
  ,                                       !- Design Zone Secondary Recirculation Fraction {dimensionless}
  ,                                       !- Design Minimum Zone Ventilation Efficiency {dimensionless}
  Coincident;                             !- Sizing Option

OS:ZoneHVAC:EquipmentList,
  {dfac34e6-2757-4732-b5d8-67bbc4dea9ab}, !- Handle
  Zone HVAC Equipment List 2,             !- Name
  {05006f59-a7e9-4584-a2e9-f16aabdb9faa}; !- Thermal Zone

OS:AdditionalProperties,
  {a1117890-e4b9-48bd-9ca8-9de12bfc1221}, !- Handle
  {05006f59-a7e9-4584-a2e9-f16aabdb9faa}, !- Object Name
  ObjectType,                             !- Feature Name 1
  String,                                 !- Feature Data Type 1
  attic - vented;                         !- Feature Value 1

OS:Space,
  {509c60c2-fda9-44c8-89ed-268ef6d73e76}, !- Handle
  attic - vented 1,                       !- Name
  ,                                       !- Space Type Name
  ,                                       !- Default Construction Set Name
  ,                                       !- Default Schedule Set Name
  ,                                       !- Direction of Relative North {deg}
  ,                                       !- X Origin {m}
  ,                                       !- Y Origin {m}
  ,                                       !- Z Origin {m}
  ,                                       !- Building Story Name
  {05006f59-a7e9-4584-a2e9-f16aabdb9faa}, !- Thermal Zone Name
  ,                                       !- Part of Total Floor Area
  ,                                       !- Design Specification Outdoor Air Object Name
  ,                                       !- Building Unit Name
  356.390921899745;                       !- Volume {m3}

OS:Material,
  {f0369635-7587-4890-8c2a-94ccd230229e}, !- Handle
  asphalt or fiberglass shingles,         !- Name
  Rough,                                  !- Roughness
  0.00635,                                !- Thickness {m}
  0.162714,                               !- Conductivity {W/m-K}
  1121.4,                                 !- Density {kg/m3}
  1465.45,                                !- Specific Heat {J/kg-K}
  0.9,                                    !- Thermal Absorptance
  0.85,                                   !- Solar Absorptance