
OS:Version,
  {e35d3b36-752a-4103-95ea-afd26a8b3b1f}, !- Handle
  3.9.0;                                  !- Version Identifier

OS:SimulationControl,
  {1bcaa443-a2c8-4c81-bb36-756feb8085d3}, !- Handle
  ,                                       !- Do Zone Sizing Calculation
  ,                                       !- Do System Sizing Calculation
  ,                                       !- Do Plant Sizing Calculation
  No;                                     !- Run Simulation for Sizing Periods

OS:Timestep,
  {b3c3f29b-fb43-46fc-bf2a-2457b0f05d3c}, !- Handle
  1;                                      !- Number of Timesteps per Hour

OS:ShadowCalculation,
  {dac08660-986f-4369-9627-9646a36d6e89}, !- Handle
  PolygonClipping,                        !- Shading Calculation Method
  ,                                       !- Shading Calculation Update Frequency Method
  20,                                     !- Shading Calculation Update Frequency
  200,                                    !- Maximum Figures in Shadow Overlap Calculations
  ,                                       !- Polygon Clipping Algorithm
  512,                                    !- Pixel Counting Resolution
  ,                                       !- Sky Diffuse Modeling Algorithm
  No,                                     !- Output External Shading Calculation Results
  No,                                     !- Disable Self-Shading Within Shading Zone Groups
  No;                                     !- Disable Self-Shading From Shading Zone Groups to Other Zones

OS:SurfaceConvectionAlgorithm:Outside,
  {ba643a8d-921a-448b-9582-ff7c926584cb}, !- Handle
  DOE-2;                                  !- Algorithm

OS:SurfaceConvectionAlgorithm:Inside,
  {875a8a13-4d82-4d73-9c8c-e8c0dbfd7aca}, !- Handle
  TARP;                                   !- Algorithm

OS:ZoneCapacitanceMultiplier:ResearchSpecial,
  {dd9bc7e2-e5cb-49b2-81d5-e66b86af9e83}, !- Handle
  7,                                      !- Temperature Capacity Multiplier
  15,                                     !- Humidity Capacity Multiplier
  ;                                       !- Carbon Dioxide Capacity Multiplier

OS:ConvergenceLimits,
  {10a725c4-4c21-4e5e-ba46-9c0df337b9e1}, !- Handle
  0;                                      !- Minimum System Timestep {minutes}

OS:RunPeriod,
  {28ffed75-31c1-4341-b79c-ee3176582d9f}, !- Handle
  Run Period 1,                           !- Name
  1,                                      !- Begin Month
  1,                                      !- Begin Day of Month
  12,                                     !- End Month
  31,                                     !- End Day of Month
  ,                                       !- Use Weather File Holidays and Special Days
  ,                                       !- Use Weather File Daylight Saving Period
  ,                                       !- Apply Weekend Holiday Rule
  ,                                       !- Use Weather File Rain Indicators
  ,                                       !- Use Weather File Snow Indicators
  ;                                       !- Number of Times Runperiod to be Repeated

OS:PerformancePrecisionTradeoffs,
  {74c9ba3c-d560-4bd4-8462-1b3d789cc850}, !- Handle
  ,                                       !- Use Coil Direct Solutions
  CarrollMRT;                             !- Zone Radiant Exchange Algorithm

OS:WeatherFile,
  {5fa4a735-92cc-4863-9627-4424a4c60249}, !- Handle
  Buffalo Niagara Intl Ap,                !- City
  NY,                                     !- State Province Region
  USA,                                    !- Country
  TMY3,                                   !- Data Source
  725280,                                 !- WMO Number
  42.93,                                  !- Latitude {deg}
  -78.73,                                 !- Longitude {deg}
  -5,                                     !- Time Zone {hr}
  215,                                    !- Elevation {m}
  /Users/nmoore/github/urbanopt-example-geojson-project/example_project/weather/USA_NY_Buffalo-Greater.Buffalo.Intl.AP.725280_TMY3.epw, !- Url
  6B50E0FF,                               !- Checksum
  ,                                       !- Start Date Actual Year
  Sunday;                                 !- Start Day of Week

OS:YearDescription,
  {18808ab0-057f-4a41-919a-88264d554b39}, !- Handle
  2007,                                   !- Calendar Year
  ,                                       !- Day of Week for Start Day
  ;                                       !- Is Leap Year

OS:Site,
  {f5e2980e-ac3f-4e2c-91b6-a8ccedac0adc}, !- Handle
  Buffalo Niagara Intl Ap_NY,             !- Name
  42.93,                                  !- Latitude {deg}
  -78.73,                                 !- Longitude {deg}
  -5,                                     !- Time Zone {hr}
  215,                                    !- Elevation {m}
  Suburbs,                                !- Terrain
  Yes;                                    !- Keep Site Location Information

OS:RunPeriodControl:DaylightSavingTime,
  {bac16f9c-5210-478a-aa63-327cb2b4864a}, !- Handle
  Mar 12,                                 !- Start Date
  Nov 5;                                  !- End Date

OS:Site:GroundTemperature:Shallow,
  {68e9b669-8c28-4f46-94f1-cb1af0ad50d1}, !- Handle
  4.30207395723828,                       !- January Surface Ground Temperature {C}
  2.29327249652502,                       !- February Surface Ground Temperature {C}
  2.13240047156047,                       !- March Surface Ground Temperature {C}
  3.08567940719286,                       !- April Surface Ground Temperature {C}
  6.91256312497526,                       !- May Surface Ground Temperature {C}
  10.7216195949507,                       !- June Surface Ground Temperature {C}
  14.0238679822574,                       !- July Surface Ground Temperature {C}
  16.1157611184724,                       !- August Surface Ground Temperature {C}
  16.2934789303462,                       !- September Surface Ground Temperature {C}
  14.5920754632847,                       !- October Surface Ground Temperature {C}
  11.374036348653,                        !- November Surface Ground Temperature {C}
  7.68182621661674;                       !- December Surface Ground Temperature {C}

OS:ThermalZone,
  {c34a0954-9506-43df-a2e1-6752c8cb4f78}, !- Handle
  conditioned space,                      !- Name
  1,                                      !- Multiplier
  ,                                       !- Ceiling Height {m}
  692.06373070848,                        !- Volume {m3}
  ,                                       !- Floor Area {m2}
  ,                                       !- Zone Inside Convection Algorithm
  ,                                       !- Zone Outside Convection Algorithm
  ,                                       !- Zone Conditioning Equipment List Name
  {9a71ddf5-7517-4be7-9929-0e420f708e3e}, !- Zone Air Inlet Port List
  {c5c2ddd7-4599-4d68-b2f0-b0f4650b310e}, !- Zone Air Exhaust Port List
  {ec19c9bc-dc8f-425d-9274-a67c5d951c8c}, !- Zone Air Node Name
  {85b38b87-00b6-4878-8dea-7cd975653745}, !- Zone Return Air Port List
  ,                                       !- Primary Daylighting Control Name
  ,                                       !- Fraction of Zone Controlled by Primary Daylighting Control
  ,                                       !- Secondary Daylighting Control Name
  ,                                       !- Fraction of Zone Controlled by Secondary Daylighting Control
  ,                                       !- Illuminance Map Name
  ,                                       !- Group Rendering Name
  {49bf88d2-997d-42b0-b630-081e9f1c074a}, !- Thermostat Name
  No;                                     !- Use Ideal Air Loads

OS:Node,
  {7ae02422-008a-4628-9527-7abf08df9738}, !- Handle
  Node 1,                                 !- Name
  {ec19c9bc-dc8f-425d-9274-a67c5d951c8c}, !- Inlet Port
  ;                                       !- Outlet Port

OS:Connection,
  {ec19c9bc-dc8f-425d-9274-a67c5d951c8c}, !- Handle
  {c34a0954-9506-43df-a2e1-6752c8cb4f78}, !- Source Object
  11,                                     !- Outlet Port
  {7ae02422-008a-4628-9527-7abf08df9738}, !- Target Object
  2;                                      !- Inlet Port

OS:PortList,
  {9a71ddf5-7517-4be7-9929-0e420f708e3e}, !- Handle
  {c34a0954-9506-43df-a2e1-6752c8cb4f78}, !- HVAC Component
  {9ee573ad-389d-49c9-bf25-abe23280ed13}; !- Port 1

OS:PortList,
  {c5c2ddd7-4599-4d68-b2f0-b0f4650b310e}, !- Handle
  {c34a0954-9506-43df-a2e1-6752c8cb4f78}; !- HVAC Component

OS:PortList,
  {85b38b87-00b6-4878-8dea-7cd975653745}, !- Handle
  {c34a0954-9506-43df-a2e1-6752c8cb4f78}, !- HVAC Component
  {4591615d-35ec-45a9-8bc9-3270c0736e1e}; !- Port 1

OS:Sizing:Zone,
  {45146224-c8da-4ca6-b2bd-5a3f39188b84}, !- Handle
  {c34a0954-9506-43df-a2e1-6752c8cb4f78}, !- Zone or ZoneList Name
  SupplyAirTemperature,                   !- Zone Cooling Design Supply Air Temperature Input Method
  14,                                     !- Zone Cooling Design Supply Air Temperature {C}
  11.11,                                  !- Zone Cooling Design Supply Air Temperature Difference {deltaC}
  SupplyAirTemperature,                   !- Zone Heating Design Supply Air Temperature Input Method
  40,                                     !- Zone Heating Design Supply Air Temperature {C}
  11.11,                                  !- Zone Heating Design Supply Air Temperature Difference {deltaC}
  0.0085,                                 !- Zone Cooling Design Supply Air Humidity Ratio {kg-H2O/kg-air}
  0.008,                                  !- Zone Heating Design Supply Air Humidity Ratio {kg-H2O/kg-air}
  ,                                       !- Zone Heating Sizing Factor
  ,                                       !- Zone Cooling Sizing Factor
  DesignDay,                              !- Cooling Design Air Flow Method
  ,                                       !- Cooling Design Air Flow Rate {m3/s}
  ,                                       !- Cooling Minimum Air Flow per Zone Floor Area {m3/s-m2}
  ,                                       !- Cooling Minimum Air Flow {m3/s}
  ,                                       !- Cooling Minimum Air Flow Fraction
  DesignDay,                              !- Heating Design Air Flow Method
  ,                                       !- Heating Design Air Flow Rate {m3/s}
  ,                                       !- Heating Maximum Air Flow per Zone Floor Area {m3/s-m2}
  ,                                       !- Heating Maximum Air Flow {m3/s}
  ,                                       !- Heating Maximum Air Flow Fraction
  No,                                     !- Account for Dedicated Outdoor Air System
  NeutralSupplyAir,                       !- Dedicated Outdoor Air System Control Strategy
  autosize,                               !- Dedicated Outdoor Air Low Setpoint Temperature for Design {C}
  autosize,                               !- Dedicated Outdoor Air High Setpoint Temperature for Design {C}
  Sensible Load Only No Latent Load,      !- Zone Load Sizing Method
  HumidityRatioDifference,                !- Zone Latent Cooling Design Supply Air Humidity Ratio Input Method
  ,                                       !- Zone Dehumidification Design Supply Air Humidity Ratio {kgWater/kgDryAir}
  0.005,                                  !- Zone Cooling Design Supply Air Humidity Ratio Difference {kgWater/kgDryAir}
  HumidityRatioDifference,                !- Zone Latent Heating Design Supply Air Humidity Ratio Input Method
  ,                                       !- Zone Humidification Design Supply Air Humidity Ratio {kgWater/kgDryAir}
  0.005,                                  !- Zone Humidification Design Supply Air Humidity Ratio Difference {kgWater/kgDryAir}
  ,                                       !- Zone Humidistat Dehumidification Set Point Schedule Name
  ,                                       !- Zone Humidistat Humidification Set Point Schedule Name
  ,                                       !- Design Zone Air Distribution Effectiveness in Cooling Mode
  ,                                       !- Design Zone Air Distribution Effectiveness in Heating Mode
  ,                                       !- Design Zone Secondary Recirculation Fraction {dimensionless}
  ,                                       !- Design Minimum Zone Ventilation Efficiency {dimensionless}
  Coincident;                             !- Sizing Option

OS:ZoneHVAC:EquipmentList,
  {cf181e73-9ac7-4e58-be2c-c2fcff6d69cf}, !- Handle
  Zone HVAC Equipment List 1,             !- Name
  {c34a0954-9506-43df-a2e1-6752c8cb4f78}, !- Thermal Zone
  ,                                       !- Load Distribution Scheme
  {dfe805a6-838c-4f31-97dd-baa1c0cc6e2a}, !- Zone Equipment 1
  1,                                      !- Zone Equipment Cooling Sequence 1
  1,                                      !- Zone Equipment Heating or No-Load Sequence 1
  {aad9e230-3540-4b08-b1b9-39dbbcd3f347}, !- Zone Equipment Sequential Cooling Fraction Schedule Name 1
  {f385e3f1-4d6e-495e-b7bf-25b9194aaea9}; !- Zone Equipment Sequential Heating Fraction Schedule Name 1

OS:AdditionalProperties,
  {81d23802-5ec9-46dd-99ca-9c95d0c57fb8}, !- Handle
  {c34a0954-9506-43df-a2e1-6752c8cb4f78}, !- Object Name
  ObjectType,                             !- Feature Name 1
  String,                                 !- Feature Data Type 1
  conditioned space;                      !- Feature Value 1

OS:Space,
  {64fa2e72-a4bd-4daf-8175-4f3119cc5f7f}, !- Handle
  conditioned space 1,                    !- Name
  ,                                       !- Space Type Name
  ,                                       !- Default Construction Set Name
  ,                                       !- Default Schedule Set Name
  ,                                       !- Direction of Relative North {deg}
  ,                                       !- X Origin {m}
  ,                                       !- Y Origin {m}
  ,                                       !- Z Origin {m}
  ,                                       !- Building Story Name
  {c34a0954-9506-43df-a2e1-6752c8cb4f78}, !- Thermal Zone Name
  ,                                       !- Part of Total Floor Area
  ,                                       !- Design Specification Outdoor Air Object Name
  ,                                       !- Building Unit Name
  692.06373070848;                        !- Volume {m3}

OS:Schedule:Ruleset,
  {72737281-c6fc-4435-a42f-8a06a92054f6}, !- Handle
  heating setpoint,                       !- Name
  {0cdb573c-1296-46b3-80d3-e805debf286a}, !- Schedule Type Limits Name
  {10b64b04-82b0-4380-91b8-3d8d3b597b80}; !- Default Day Schedule Name

OS:Schedule:Day,
  {10b64b04-82b0-4380-91b8-3d8d3b597b80}, !- Handle
  heating setpoint default day,           !- Name
  {0cdb573c-1296-46b3-80d3-e805debf286a}, !- Schedule Type Limits Name
  ,                                       !- Interpolate to Timestep
  24,                                     !- Hour 1
  0,                                      !- Minute 1
  0;                                      !- Value Until Time 1

OS:Schedule:Rule,
  {4eb37da3-0b49-4758-ae0f-dd7b5e1514f1}, !- Handle
  heating setpoint allday rule,           !- Name
  {72737281-c6fc-4435-a42f-8a06a92054f6}, !- Schedule Ruleset Name
  0,                                      !- Rule Order
  {958541ab-8ba6-422e-a59a-968e9a018303}, !- Day Schedule Name
  Yes,                                    !- Apply Sunday
  Yes,                                    !- Apply Monday
  Yes,                                    !- Apply Tuesday
  Yes,                                    !- Apply Wednesday
  Yes,                                    !- Apply Thursday
  Yes,                                    !- Apply Friday
  Yes,                                    !- Apply Saturday
  DateRange,                              !- Date Specification Type
  1,                                      !- Start Month
  1,                                      !- Start Day
  12,                                     !- End Month
  31;                                     !- End Day

OS:Schedule:Day,
  {958541ab-8ba6-422e-a59a-968e9a018303}, !- Handle
  heating setpoint day,                   !- Name
  {0cdb573c-1296-46b3-80d3-e805debf286a}, !- Schedule Type Limits Name
  ,                                       !- Interpolate to Timestep
  24,                                     !- Hour 1
  0,                                      !- Minute 1
  20;                                     !- Value Until Time 1

OS:Schedule:Ruleset,
  {96728b34-c205-4536-bc6f-ee4f5fe5a346}, !- Handle
  cooling setpoint,                       !- Name
  {0cdb573c-1296-46b3-80d3-e805debf286a}, !- Schedule Type Limits Name
  {92f7b852-fda1-4bd8-bdd8-2c8f1d9e22f8}; !- Default Day Schedule Name

OS:Schedule:Day,
  {92f7b852-fda1-4bd8-bdd8-2c8f1d9e22f8}, !- Handle
  cooling setpoint default day,           !- Name
  {0cdb573c-1296-46b3-80d3-e805debf286a}, !- Schedule Type Limits Name
  ,                                       !- Interpolate to Timestep
  24,                                     !- Hour 1
  0,                                      !- Minute 1
  0;                                      !- Value Until Time 1

OS:Schedule:Rule,
  {4d54bb2f-5fff-4347-b17d-2e1b0a73f3c5}, !- Handle
  cooling setpoint allday rule,           !- Name
  {96728b34-c205-4536-bc6f-ee4f5fe5a346}, !- Schedule Ruleset Name
  0,                                      !- Rule Order
  {22decf9e-bba5-414f-99ef-2b1d2ec56b55}, !- Day Schedule Name
  Yes,                                    !- Apply Sunday
  Yes,                                    !- Apply Monday
  Yes,                                    !- Apply Tuesday
  Yes,                                    !- Apply Wednesday
  Yes,                                    !- Apply Thursday
  Yes,                                    !- Apply Friday
  Yes,                                    !- Apply Saturday
  DateRange,                              !- Date Specification Type
  1,                                      !- Start Month
  1,                                      !- Start Day
  12,                                     !- End Month
  31;                                     !- End Day

OS:Schedule:Day,
  {22decf9e-bba5-414f-99ef-2b1d2ec56b55}, !- Handle
  cooling setpoint day,                   !- Name
  {0cdb573c-1296-46b3-80d3-e805debf286a}, !- Schedule Type Limits Name
  ,                                       !- Interpolate to Timestep
  24,                                     !- Hour 1
  0,                                      !- Minute 1
  25.5555555555556;                       !- Value Until Time 1

OS:ThermostatSetpoint:DualSetpoint,
  {49bf88d2-997d-42b0-b630-081e9f1c074a}, !- Handle
  conditioned space temperature setpoint, !- Name
  {72737281-c6fc-4435-a42f-8a06a92054f6}, !- Heating Setpoint Temperature Schedule Name
  {96728b34-c205-4536-bc6f-ee4f5fe5a346}, !- Cooling Setpoint Temperature Schedule Name
  0;                                      !- Temperature Difference Between Cutout And Setpoint {deltaC}

OS:ScheduleTypeLimits,
  {0cdb573c-1296-46b3-80d3-e805debf286a}, !- Handle
  Temperature,                            !- Name
  ,                                       !- Lower Limit Value
  ,                                       !- Upper Limit Value
  Continuous,                             !- Numeric Type
  Temperature;                            !- Unit Type

OS:Surface,
  {78d7f984-a72a-4053-8319-dbf96aba6bb6}, !- Handle
  Roof1,                                  !- Name
  RoofCeiling,                            !- Surface Type
  {fcb1144b-1aff-4ec7-a358-f2c0db6bc758}, !- Construction Name
  {fc6660a0-2e70-49b1-a4de-b8c8e767553c}, !- Space Name
  Outdoors,                               !- Outside Boundary Condition
  ,                                       !- Outside Boundary Condition Object
  SunExposed,                             !- Sun Exposure
  WindExposed,                            !- Wind Exposure
  ,                                       !- View Factor to Ground
  ,                                       !- Number of Vertices
  -26.9347048849634, 58.0557891618865, 2.4384, !- X,Y,Z Vertex 1 {m}
  -26.9347048849634, 46.7895631136661, 8.0715130241102, !- X,Y,Z Vertex 2 {m}
  -14.3386812381136, 46.7895631136661, 8.0715130241102, !- X,Y,Z Vertex 3 {m}
  -14.3386812381136, 58.0557891618865, 2.4384; !- X,Y,Z Vertex 4 {m}

OS:AdditionalProperties,
  {461ab25e-739e-45d0-9a6c-9dad50306166}, !- Handle
  {78d7f984-a72a-4053-8319-dbf96aba6bb6}, !- Object Name
  Length,                                 !- Feature Name 1
  Double,                                 !- Feature Data Type 1
  41.325536899113608,                     !- Feature Value 1
  Width,                                  !- Feature Name 2
  Double,                                 !- Feature Data Type 2
  41.325536899113601,                     !- Feature Value 2
  Azimuth,                                !- Feature Name 3
  Integer,                                !- Feature Data Type 3
  0,                                      !- Feature Value 3
  Tilt,                                   !- Feature Name 4
  Double,                                 !- Feature Data Type 4
  0.5,                                    !- Feature Value 4
  SurfaceType,                            !- Feature Name 5
  String,                                 !- Feature Data Type 5
  Roof;                                   !- Feature Value 5

OS:ThermalZone,
  {7eada4e0-fc21-46f2-b378-3d1f9ec1d4f1}, !- Handle
  attic - vented,                         !- Name
  1,                                      !- Multiplier
  ,                                       !- Ceiling Height {m}
  356.389957095237,                       !- Volume {m3}
  ,                                       !- Floor Area {m2}
  ,                                       !- Zone Inside Convection Algorithm
  ,                                       !- Zone Outside Convection Algorithm
  ,                                       !- Zone Conditioning Equipment List Name
  {d68feae0-31c4-40ce-92d5-ab903ee395ef}, !- Zone Air Inlet Port List
  {e5a15177-8307-4c5b-a3f2-58ed68e48234}, !- Zone Air Exhaust Port List
  {6c2c94bb-6492-4430-bb2e-be0be4120c58}, !- Zone Air Node Name
  {e28b61ed-f514-4bfd-8a42-2d02af0b90c2}, !- Zone Return Air Port List
  ,                                       !- Primary Daylighting Control Name
  ,                                       !- Fraction of Zone Controlled by Primary Daylighting Control
  ,                                       !- Secondary Daylighting Control Name
  ,                                       !- Fraction of Zone Controlled by Secondary Daylighting Control
  ,                                       !- Illuminance Map Name
  ,                                       !- Group Rendering Name
  ,                                       !- Thermostat Name
  No;                                     !- Use Ideal Air Loads

OS:Node,
  {463906f4-8e1e-497d-a7f9-45c4d14c4f15}, !- Handle
  Node 2,                                 !- Name
  {6c2c94bb-6492-4430-bb2e-be0be4120c58}, !- Inlet Port
  ;                                       !- Outlet Port

OS:Connection,
  {6c2c94bb-6492-4430-bb2e-be0be4120c58}, !- Handle
  {7eada4e0-fc21-46f2-b378-3d1f9ec1d4f1}, !- Source Object
  11,                                     !- Outlet Port
  {463906f4-8e1e-497d-a7f9-45c4d14c4f15}, !- Target Object
  2;                                      !- Inlet Port

OS:PortList,
  {d68feae0-31c4-40ce-92d5-ab903ee395ef}, !- Handle
  {7eada4e0-fc21-46f2-b378-3d1f9ec1d4f1}; !- HVAC Component

OS:PortList,
  {e5a15177-8307-4c5b-a3f2-58ed68e48234}, !- Handle
  {7eada4e0-fc21-46f2-b378-3d1f9ec1d4f1}; !- HVAC Component

OS:PortList,
  {e28b61ed-f514-4bfd-8a42-2d02af0b90c2}, !- Handle
  {7eada4e0-fc21-46f2-b378-3d1f9ec1d4f1}; !- HVAC Component

OS:Sizing:Zone,
  {56df2285-b0fe-4f3e-a32b-029e24883048}, !- Handle
  {7eada4e0-fc21-46f2-b378-3d1f9ec1d4f1}, !- Zone or ZoneList Name
  SupplyAirTemperature,                   !- Zone Cooling Design Supply Air Temperature Input Method
  14,                                     !- Zone Cooling Design Supply Air Temperature {C}
  11.11,                                  !- Zone Cooling Design Supply Air Temperature Difference {deltaC}
  SupplyAirTemperature,                   !- Zone Heating Design Supply Air Temperature Input Method
  40,                                     !- Zone Heating Design Supply Air Temperature {C}
  11.11,                                  !- Zone Heating Design Supply Air Temperature Difference {deltaC}
  0.0085,                                 !- Zone Cooling Design Supply Air Humidity Ratio {kg-H2O/kg-air}
  0.008,                                  !- Zone Heating Design Supply Air Humidity Ratio {kg-H2O/kg-air}
  ,                                       !- Zone Heating Sizing Factor
  ,                                       !- Zone Cooling Sizing Factor
  DesignDay,                              !- Cooling Design Air Flow Method
  ,                                       !- Cooling Design Air Flow Rate {m3/s}
  ,                                       !- Cooling Minimum Air Flow per Zone Floor Area {m3/s-m2}
  ,                                       !- Cooling Minimum Air Flow {m3/s}
  ,                                       !- Cooling Minimum Air Flow Fraction
  DesignDay,                              !- Heating Design Air Flow Method
  ,                                       !- Heating Design Air Flow Rate {m3/s}
  ,                                       !- Heating Maximum Air Flow per Zone Floor Area {m3/s-m2}
  ,                                       !- Heating Maximum Air Flow {m3/s}
  ,                                       !- Heating Maximum Air Flow Fraction
  No,                                     !- Account for Dedicated Outdoor Air System
  NeutralSupplyAir,                       !- Dedicated Outdoor Air System Control Strategy
  autosize,                               !- Dedicated Outdoor Air Low Setpoint Temperature for Design {C}
  autosize,                               !- Dedicated Outdoor Air High Setpoint Temperature for Design {C}
  Sensible Load Only No Latent Load,      !- Zone Load Sizing Method
  HumidityRatioDifference,                !- Zone Latent Cooling Design Supply Air Humidity Ratio Input Method
  ,                                       !- Zone Dehumidification Design Supply Air Humidity Ratio {kgWater/kgDryAir}
  0.005,                                  !- Zone Cooling Design Supply Air Humidity Ratio Difference {kgWater/kgDryAir}
  HumidityRatioDifference,                !- Zone Latent Heating Design Supply Air Humidity Ratio Input Method
  ,                                       !- Zone Humidification Design Supply Air Humidity Ratio {kgWater/kgDryAir}
  0.005,                                  !- Zone Humidification Design Supply Air Humidity Ratio Difference {kgWater/kgDryAir}
  ,                                       !- Zone Humidistat Dehumidification Set Point Schedule Name
  ,                                       !- Zone Humidistat Humidification Set Point Schedule Name
  ,                                       !- Design Zone Air Distribution Effectiveness in Cooling Mode
  ,                                       !- Design Zone Air Distribution Effectiveness in Heating Mode
  ,                                       !- Design Zone Secondary Recirculation Fraction {dimensionless}
  ,                                       !- Design Minimum Zone Ventilation Efficiency {dimensionless}
  Coincident;                             !- Sizing Option

OS:ZoneHVAC:EquipmentList,
  {15679e5c-7108-4f42-a75a-bdbf3f6ba042}, !- Handle
  Zone HVAC Equipment List 2,             !- Name
  {7eada4e0-fc21-46f2-b378-3d1f9ec1d4f1}; !- Thermal Zone

OS:AdditionalProperties,
  {9b8e5c02-f642-4b96-b384-11f9699b4eae}, !- Handle
  {7eada4e0-fc21-46f2-b378-3d1f9ec1d4f1}, !- Object Name
  ObjectType,                             !- Feature Name 1
  String,                                 !- Feature Data Type 1
  attic - vented;                         !- Feature Value 1

OS:Space,
  {fc6660a0-2e70-49b1-a4de-b8c8e767553c}, !- Handle
  attic - vented 1,                       !- Name
  ,                                       !- Space Type Name
  ,                                       !- Default Construction Set Name
  ,                                       !- Default Schedule Set Name
  ,                                       !- Direction of Relative North {deg}
  ,                                       !- X Origin {m}
  ,                                       !- Y Origin {m}
  ,                                       !- Z Origin {m}
  ,                                       !- Building Story Name
  {7eada4e0-fc21-46f2-b378-3d1f9ec1d4f1}, !- Thermal Zone Name
  ,                                       !- Part of Total Floor Area
  ,                                       !- Design Specification Outdoor Air Object Name
  ,                                       !- Building Unit Name
  356.389957095237;                       !- Volume {m3}

OS:Material,
  {f2f3e7f8-ade9-45c8-8bd7-026e4b32cf0b}, !- Handle
  asphalt or fiberglass shingles,         !- Name
  Rough,                                  !- Roughness
  0.00635,                                !- Thickness {m}
  0.162714,                               !- Conductivity {W/m-K}
  1121.4,                                 !- Density {kg/m3}
  1465.45,                                !- Specific Heat {J/kg-K}
  0.9,                                    !- Thermal Absorptance
  0.85,                                   !- Solar Absorptance