
OS:Version,
  {8ec894f9-882d-4ada-b3d7-5369d5bd2780}, !- Handle
  3.10.0;                                 !- Version Identifier

OS:SimulationControl,
  {e700e272-b49c-4f62-bd2c-6732576d639c}, !- Handle
  ,                                       !- Do Zone Sizing Calculation
  ,                                       !- Do System Sizing Calculation
  ,                                       !- Do Plant Sizing Calculation
  No;                                     !- Run Simulation for Sizing Periods

OS:Timestep,
  {09f7cd37-016f-45cd-bf3d-9616d4f8711b}, !- Handle
  1;                                      !- Number of Timesteps per Hour

OS:ShadowCalculation,
  {b1320f01-08d7-4dee-80f5-8a34e036ecc8}, !- Handle
  PolygonClipping,                        !- Shading Calculation Method
  ,                                       !- Shading Calculation Update Frequency Method
  20,                                     !- Shading Calculation Update Frequency
  200,                                    !- Maximum Figures in Shadow Overlap Calculations
  ,                                       !- Polygon Clipping Algorithm
  512,                                    !- Pixel Counting Resolution
  ,                                       !- Sky Diffuse Modeling Algorithm
  No,                                     !- Output External Shading Calculation Results
  No,                                     !- Disable Self-Shading Within Shading Zone Groups
  No;                                     !- Disable Self-Shading From Shading Zone Groups to Other Zones

OS:SurfaceConvectionAlgorithm:Outside,
  {eff3934c-a9fe-4c90-a45e-819fda810e61}, !- Handle
  DOE-2;                                  !- Algorithm

OS:SurfaceConvectionAlgorithm:Inside,
  {7cc8fb67-884c-4330-a43e-f4d8930c1511}, !- Handle
  TARP;                                   !- Algorithm

OS:ZoneCapacitanceMultiplier:ResearchSpecial,
  {ec9dd9bb-9336-4ecd-a6eb-3209f72a6c7a}, !- Handle
  7,                                      !- Temperature Capacity Multiplier
  15,                                     !- Humidity Capacity Multiplier
  ;                                       !- Carbon Dioxide Capacity Multiplier

OS:ConvergenceLimits,
  {9a4bc6d5-1ae0-46e1-b8be-3873647e428b}, !- Handle
  0;                                      !- Minimum System Timestep {minutes}

OS:RunPeriod,
  {7be8765e-416a-4cbb-bbf9-8a11c8418bdd}, !- Handle
  Run Period 1,                           !- Name
  1,                                      !- Begin Month
  1,                                      !- Begin Day of Month
  12,                                     !- End Month
  31,                                     !- End Day of Month
  ,                                       !- Use Weather File Holidays and Special Days
  ,                                       !- Use Weather File Daylight Saving Period
  ,                                       !- Apply Weekend Holiday Rule
  ,                                       !- Use Weather File Rain Indicators
  ,                                       !- Use Weather File Snow Indicators
  ;                                       !- Number of Times Runperiod to be Repeated

OS:PerformancePrecisionTradeoffs,
  {661a02de-52ae-4c8f-a186-e7eb10392ed7}, !- Handle
  ,                                       !- Use Coil Direct Solutions
  CarrollMRT;                             !- Zone Radiant Exchange Algorithm

OS:WeatherFile,
  {c3c2d52c-ee75-4751-b772-7f301836fe96}, !- Handle
  Buffalo Niagara Intl Ap,                !- City
  NY,                                     !- State Province Region
  USA,                                    !- Country
  TMY3,                                   !- Data Source
  725280,                                 !- WMO Number
  42.93,                                  !- Latitude {deg}
  -78.73,                                 !- Longitude {deg}
  -5,                                     !- Time Zone {hr}
  215,                                    !- Elevation {m}
  /Users/nmoore/github/urbanopt-example-geojson-project/example_project/weather/USA_NY_Buffalo-Greater.Buffalo.Intl.AP.725280_TMY3.epw, !- Url
  6B50E0FF,                               !- Checksum
  ,                                       !- Start Date Actual Year
  Sunday;                                 !- Start Day of Week

OS:YearDescription,
  {f0ffafc9-86d8-4cfa-8169-d822e7d6c5a2}, !- Handle
  2007,                                   !- Calendar Year
  ,                                       !- Day of Week for Start Day
  ;                                       !- Is Leap Year

OS:Site,
  {6b86e4b3-8fd7-4818-99c7-a84f1ce8fcfe}, !- Handle
  Buffalo Niagara Intl Ap_NY,             !- Name
  42.93,                                  !- Latitude {deg}
  -78.73,                                 !- Longitude {deg}
  -5,                                     !- Time Zone {hr}
  215,                                    !- Elevation {m}
  Suburbs,                                !- Terrain
  Yes;                                    !- Keep Site Location Information

OS:RunPeriodControl:DaylightSavingTime,
  {0cbc26d9-3547-4cbb-bc0e-a6966ce1c228}, !- Handle
  Mar 12,                                 !- Start Date
  Nov 5;                                  !- End Date

OS:Site:GroundTemperature:Shallow,
  {7d21866a-37b7-4359-9d80-367b24011fd3}, !- Handle
  4.30207395723828,                       !- January Surface Ground Temperature {C}
  2.29327249652502,                       !- February Surface Ground Temperature {C}
  2.13240047156047,                       !- March Surface Ground Temperature {C}
  3.08567940719286,                       !- April Surface Ground Temperature {C}
  6.91256312497526,                       !- May Surface Ground Temperature {C}
  10.7216195949507,                       !- June Surface Ground Temperature {C}
  14.0238679822574,                       !- July Surface Ground Temperature {C}
  16.1157611184724,                       !- August Surface Ground Temperature {C}
  16.2934789303462,                       !- September Surface Ground Temperature {C}
  14.5920754632847,                       !- October Surface Ground Temperature {C}
  11.374036348653,                        !- November Surface Ground Temperature {C}
  7.68182621661674;                       !- December Surface Ground Temperature {C}

OS:ThermalZone,
  {17b4977a-5bd7-40e7-b2e0-d51add8eae9e}, !- Handle
  conditioned space,                      !- Name
  1,                                      !- Multiplier
  ,                                       !- Ceiling Height {m}
  692.06373070848,                        !- Volume {m3}
  ,                                       !- Floor Area {m2}
  ,                                       !- Zone Inside Convection Algorithm
  ,                                       !- Zone Outside Convection Algorithm
  ,                                       !- Zone Conditioning Equipment List Name
  {1057d831-e638-41b5-904b-b5bcfb182bcd}, !- Zone Air Inlet Port List
  {f832e1ba-6db1-48d8-a570-314fea363ab4}, !- Zone Air Exhaust Port List
  {6b076f72-8220-4e85-96f8-eca0d2bc8639}, !- Zone Air Node Name
  {fc7c02af-7836-4d1f-bf98-f3149c4783f5}, !- Zone Return Air Port List
  ,                                       !- Primary Daylighting Control Name
  ,                                       !- Fraction of Zone Controlled by Primary Daylighting Control
  ,                                       !- Secondary Daylighting Control Name
  ,                                       !- Fraction of Zone Controlled by Secondary Daylighting Control
  ,                                       !- Illuminance Map Name
  ,                                       !- Group Rendering Name
  {4e02b1e8-abd0-48d5-9532-62ab7fbac0ee}, !- Thermostat Name
  No;                                     !- Use Ideal Air Loads

OS:Node,
  {44ad917b-8f31-409b-8dae-f27a8747323e}, !- Handle
  Node 1,                                 !- Name
  {6b076f72-8220-4e85-96f8-eca0d2bc8639}, !- Inlet Port
  ;                                       !- Outlet Port

OS:Connection,
  {6b076f72-8220-4e85-96f8-eca0d2bc8639}, !- Handle
  {17b4977a-5bd7-40e7-b2e0-d51add8eae9e}, !- Source Object
  11,                                     !- Outlet Port
  {44ad917b-8f31-409b-8dae-f27a8747323e}, !- Target Object
  2;                                      !- Inlet Port

OS:PortList,
  {1057d831-e638-41b5-904b-b5bcfb182bcd}, !- Handle
  {17b4977a-5bd7-40e7-b2e0-d51add8eae9e}, !- HVAC Component
  {cc41a328-9bef-44eb-843f-3c1070f3bd4a}; !- Port 1

OS:PortList,
  {f832e1ba-6db1-48d8-a570-314fea363ab4}, !- Handle
  {17b4977a-5bd7-40e7-b2e0-d51add8eae9e}; !- HVAC Component

OS:PortList,
  {fc7c02af-7836-4d1f-bf98-f3149c4783f5}, !- Handle
  {17b4977a-5bd7-40e7-b2e0-d51add8eae9e}, !- HVAC Component
  {ea99f521-831d-4b7e-acd2-c805f0a604ed}; !- Port 1

OS:Sizing:Zone,
  {d9932513-709b-4fc6-9650-677223a39111}, !- Handle
  {17b4977a-5bd7-40e7-b2e0-d51add8eae9e}, !- Zone or ZoneList Name
  SupplyAirTemperature,                   !- Zone Cooling Design Supply Air Temperature Input Method
  14,                                     !- Zone Cooling Design Supply Air Temperature {C}
  11.11,                                  !- Zone Cooling Design Supply Air Temperature Difference {deltaC}
  SupplyAirTemperature,                   !- Zone Heating Design Supply Air Temperature Input Method
  40,                                     !- Zone Heating Design Supply Air Temperature {C}
  11.11,                                  !- Zone Heating Design Supply Air Temperature Difference {deltaC}
  0.0085,                                 !- Zone Cooling Design Supply Air Humidity Ratio {kg-H2O/kg-air}
  0.008,                                  !- Zone Heating Design Supply Air Humidity Ratio {kg-H2O/kg-air}
  ,                                       !- Zone Heating Sizing Factor
  ,                                       !- Zone Cooling Sizing Factor
  DesignDay,                              !- Cooling Design Air Flow Method
  ,                                       !- Cooling Design Air Flow Rate {m3/s}
  ,                                       !- Cooling Minimum Air Flow per Zone Floor Area {m3/s-m2}
  ,                                       !- Cooling Minimum Air Flow {m3/s}
  ,                                       !- Cooling Minimum Air Flow Fraction
  DesignDay,                              !- Heating Design Air Flow Method
  ,                                       !- Heating Design Air Flow Rate {m3/s}
  ,                                       !- Heating Maximum Air Flow per Zone Floor Area {m3/s-m2}
  ,                                       !- Heating Maximum Air Flow {m3/s}
  ,                                       !- Heating Maximum Air Flow Fraction
  No,                                     !- Account for Dedicated Outdoor Air System
  NeutralSupplyAir,                       !- Dedicated Outdoor Air System Control Strategy
  autosize,                               !- Dedicated Outdoor Air Low Setpoint Temperature for Design {C}
  autosize,                               !- Dedicated Outdoor Air High Setpoint Temperature for Design {C}
  Sensible Load Only No Latent Load,      !- Zone Load Sizing Method
  HumidityRatioDifference,                !- Zone Latent Cooling Design Supply Air Humidity Ratio Input Method
  ,                                       !- Zone Dehumidification Design Supply Air Humidity Ratio {kgWater/kgDryAir}
  0.005,                                  !- Zone Cooling Design Supply Air Humidity Ratio Difference {kgWater/kgDryAir}
  HumidityRatioDifference,                !- Zone Latent Heating Design Supply Air Humidity Ratio Input Method
  ,                                       !- Zone Humidification Design Supply Air Humidity Ratio {kgWater/kgDryAir}
  0.005,                                  !- Zone Humidification Design Supply Air Humidity Ratio Difference {kgWater/kgDryAir}
  ,                                       !- Zone Humidistat Dehumidification Set Point Schedule Name
  ,                                       !- Zone Humidistat Humidification Set Point Schedule Name
  ,                                       !- Design Zone Air Distribution Effectiveness in Cooling Mode
  ,                                       !- Design Zone Air Distribution Effectiveness in Heating Mode
  ,                                       !- Design Zone Secondary Recirculation Fraction {dimensionless}
  ,                                       !- Design Minimum Zone Ventilation Efficiency {dimensionless}
  Coincident;                             !- Sizing Option

OS:ZoneHVAC:EquipmentList,
  {dd3b4e4e-21ee-4858-95a0-4d70941b2f7f}, !- Handle
  Zone HVAC Equipment List 1,             !- Name
  {17b4977a-5bd7-40e7-b2e0-d51add8eae9e}, !- Thermal Zone
  ,                                       !- Load Distribution Scheme
  {7705cba9-9448-47c1-8512-b11307d65526}, !- Zone Equipment 1
  1,                                      !- Zone Equipment Cooling Sequence 1
  1,                                      !- Zone Equipment Heating or No-Load Sequence 1
  {518f96c9-f101-4bc2-bfc3-e1f2325fb05b}, !- Zone Equipment Sequential Cooling Fraction Schedule Name 1
  {f40ff424-0370-469c-a928-111b8f1003ce}; !- Zone Equipment Sequential Heating Fraction Schedule Name 1

OS:AdditionalProperties,
  {4f6e6a2b-91ed-455b-8700-c5199e2d049f}, !- Handle
  {17b4977a-5bd7-40e7-b2e0-d51add8eae9e}, !- Object Name
  ObjectType,                             !- Feature Name 1
  String,                                 !- Feature Data Type 1
  conditioned space;                      !- Feature Value 1

OS:Space,
  {6daafb5d-cc6a-4045-b05c-3346098f6786}, !- Handle
  conditioned space 1,                    !- Name
  ,                                       !- Space Type Name
  ,                                       !- Default Construction Set Name
  ,                                       !- Default Schedule Set Name
  ,                                       !- Direction of Relative North {deg}
  ,                                       !- X Origin {m}
  ,                                       !- Y Origin {m}
  ,                                       !- Z Origin {m}
  ,                                       !- Building Story Name
  {17b4977a-5bd7-40e7-b2e0-d51add8eae9e}, !- Thermal Zone Name
  ,                                       !- Part of Total Floor Area
  ,                                       !- Design Specification Outdoor Air Object Name
  ,                                       !- Building Unit Name
  692.06373070848;                        !- Volume {m3}

OS:Schedule:Ruleset,
  {d8ad3599-10b4-4ba7-af8a-917391c40e8a}, !- Handle
  heating setpoint,                       !- Name
  {603c35c2-44a2-44cd-a6f9-7184d7608800}, !- Schedule Type Limits Name
  {4438d958-0d75-4c63-8d4b-e1f75a88c8c9}; !- Default Day Schedule Name

OS:Schedule:Day,
  {4438d958-0d75-4c63-8d4b-e1f75a88c8c9}, !- Handle
  heating setpoint default day,           !- Name
  {603c35c2-44a2-44cd-a6f9-7184d7608800}, !- Schedule Type Limits Name
  ,                                       !- Interpolate to Timestep
  24,                                     !- Hour 1
  0,                                      !- Minute 1
  0;                                      !- Value Until Time 1

OS:Schedule:Rule,
  {b4844a31-4b4a-4128-bfd6-c88ebd5fbf53}, !- Handle
  heating setpoint allday rule,           !- Name
  {d8ad3599-10b4-4ba7-af8a-917391c40e8a}, !- Schedule Ruleset Name
  0,                                      !- Rule Order
  {a4e5ab61-34ec-4c5b-80a7-796548ba0642}, !- Day Schedule Name
  Yes,                                    !- Apply Sunday
  Yes,                                    !- Apply Monday
  Yes,                                    !- Apply Tuesday
  Yes,                                    !- Apply Wednesday
  Yes,                                    !- Apply Thursday
  Yes,                                    !- Apply Friday
  Yes,                                    !- Apply Saturday
  DateRange,                              !- Date Specification Type
  1,                                      !- Start Month
  1,                                      !- Start Day
  12,                                     !- End Month
  31;                                     !- End Day

OS:Schedule:Day,
  {a4e5ab61-34ec-4c5b-80a7-796548ba0642}, !- Handle
  heating setpoint day,                   !- Name
  {603c35c2-44a2-44cd-a6f9-7184d7608800}, !- Schedule Type Limits Name
  ,                                       !- Interpolate to Timestep
  24,                                     !- Hour 1
  0,                                      !- Minute 1
  20;                                     !- Value Until Time 1

OS:Schedule:Ruleset,
  {98f8a7b6-c4db-45b6-b0d0-5c321234210c}, !- Handle
  cooling setpoint,                       !- Name
  {603c35c2-44a2-44cd-a6f9-7184d7608800}, !- Schedule Type Limits Name
  {8ae6b995-3f0a-4658-902b-b37d7f98ba23}; !- Default Day Schedule Name

OS:Schedule:Day,
  {8ae6b995-3f0a-4658-902b-b37d7f98ba23}, !- Handle
  cooling setpoint default day,           !- Name
  {603c35c2-44a2-44cd-a6f9-7184d7608800}, !- Schedule Type Limits Name
  ,                                       !- Interpolate to Timestep
  24,                                     !- Hour 1
  0,                                      !- Minute 1
  0;                                      !- Value Until Time 1

OS:Schedule:Rule,
  {b4e81b61-eb74-4b17-80f4-09196057ec17}, !- Handle
  cooling setpoint allday rule,           !- Name
  {98f8a7b6-c4db-45b6-b0d0-5c321234210c}, !- Schedule Ruleset Name
  0,                                      !- Rule Order
  {dd346613-4ff3-4fa3-aef5-6b667e295fa3}, !- Day Schedule Name
  Yes,                                    !- Apply Sunday
  Yes,                                    !- Apply Monday
  Yes,                                    !- Apply Tuesday
  Yes,                                    !- Apply Wednesday
  Yes,                                    !- Apply Thursday
  Yes,                                    !- Apply Friday
  Yes,                                    !- Apply Saturday
  DateRange,                              !- Date Specification Type
  1,                                      !- Start Month
  1,                                      !- Start Day
  12,                                     !- End Month
  31;                                     !- End Day

OS:Schedule:Day,
  {dd346613-4ff3-4fa3-aef5-6b667e295fa3}, !- Handle
  cooling setpoint day,                   !- Name
  {603c35c2-44a2-44cd-a6f9-7184d7608800}, !- Schedule Type Limits Name
  ,                                       !- Interpolate to Timestep
  24,                                     !- Hour 1
  0,                                      !- Minute 1
  25.5555555555556;                       !- Value Until Time 1

OS:ThermostatSetpoint:DualSetpoint,
  {4e02b1e8-abd0-48d5-9532-62ab7fbac0ee}, !- Handle
  conditioned space temperature setpoint, !- Name
  {d8ad3599-10b4-4ba7-af8a-917391c40e8a}, !- Heating Setpoint Temperature Schedule Name
  {98f8a7b6-c4db-45b6-b0d0-5c321234210c}, !- Cooling Setpoint Temperature Schedule Name
  0;                                      !- Temperature Difference Between Cutout And Setpoint {deltaC}

OS:ScheduleTypeLimits,
  {603c35c2-44a2-44cd-a6f9-7184d7608800}, !- Handle
  Temperature,                            !- Name
  ,                                       !- Lower Limit Value
  ,                                       !- Upper Limit Value
  Continuous,                             !- Numeric Type
  Temperature;                            !- Unit Type

OS:Surface,
  {696c32a9-f93e-403e-9fc8-8d6a4b3b8bd2}, !- Handle
  Roof1,                                  !- Name
  RoofCeiling,                            !- Surface Type
  {193da838-6370-478a-b2af-7a1e80beff1f}, !- Construction Name
  {98bfc222-2126-4b04-b0cf-11e041ec3d26}, !- Space Name
  Outdoors,                               !- Outside Boundary Condition
  ,                                       !- Outside Boundary Condition Object
  SunExposed,                             !- Sun Exposure
  WindExposed,                            !- Wind Exposure
  ,                                       !- View Factor to Ground
  ,                                       !- Number of Vertices
  -26.9347048849634, 58.0557891618865, 2.4384, !- X,Y,Z Vertex 1 {m}
  -26.9347048849634, 46.7895631136661, 8.0715130241102, !- X,Y,Z Vertex 2 {m}
  -14.3386812381136, 46.7895631136661, 8.0715130241102, !- X,Y,Z Vertex 3 {m}
  -14.3386812381136, 58.0557891618865, 2.4384; !- X,Y,Z Vertex 4 {m}

OS:AdditionalProperties,
  {315c1b05-0344-4f39-a05d-8f4ed2b43b16}, !- Handle
  {696c32a9-f93e-403e-9fc8-8d6a4b3b8bd2}, !- Object Name
  Length,                                 !- Feature Name 1
  Double,                                 !- Feature Data Type 1
  41.325536899113608,                     !- Feature Value 1
  Width,                                  !- Feature Name 2
  Double,                                 !- Feature Data Type 2
  41.325536899113601,                     !- Feature Value 2
  Azimuth,                                !- Feature Name 3
  Integer,                                !- Feature Data Type 3
  0,                                      !- Feature Value 3
  Tilt,                                   !- Feature Name 4
  Double,                                 !- Feature Data Type 4
  0.5,                                    !- Feature Value 4
  SurfaceType,                            !- Feature Name 5
  String,                                 !- Feature Data Type 5
  Roof;                                   !- Feature Value 5

OS:ThermalZone,
  {53b8be2d-4a2e-42fd-b302-632ed41949db}, !- Handle
  attic - vented,                         !- Name
  1,                                      !- Multiplier
  ,                                       !- Ceiling Height {m}
  356.390921899745,                       !- Volume {m3}
  ,                                       !- Floor Area {m2}
  ,                                       !- Zone Inside Convection Algorithm
  ,                                       !- Zone Outside Convection Algorithm
  ,                                       !- Zone Conditioning Equipment List Name
  {fc0c0230-cb1f-4d67-8b92-ac235acec07e}, !- Zone Air Inlet Port List
  {dc04ace6-4fa6-490a-91f0-8a8cafe74368}, !- Zone Air Exhaust Port List
  {4bacebc3-5ebf-4126-b371-94fab79ce6dd}, !- Zone Air Node Name
  {149a3e4a-2155-4667-be7a-937c4e114f62}, !- Zone Return Air Port List
  ,                                       !- Primary Daylighting Control Name
  ,                                       !- Fraction of Zone Controlled by Primary Daylighting Control
  ,                                       !- Secondary Daylighting Control Name
  ,                                       !- Fraction of Zone Controlled by Secondary Daylighting Control
  ,                                       !- Illuminance Map Name
  ,                                       !- Group Rendering Name
  ,                                       !- Thermostat Name
  No;                                     !- Use Ideal Air Loads

OS:Node,
  {0b63590e-097f-4c3c-993c-ebb6579bea5e}, !- Handle
  Node 2,                                 !- Name
  {4bacebc3-5ebf-4126-b371-94fab79ce6dd}, !- Inlet Port
  ;                                       !- Outlet Port

OS:Connection,
  {4bacebc3-5ebf-4126-b371-94fab79ce6dd}, !- Handle
  {53b8be2d-4a2e-42fd-b302-632ed41949db}, !- Source Object
  11,                                     !- Outlet Port
  {0b63590e-097f-4c3c-993c-ebb6579bea5e}, !- Target Object
  2;                                      !- Inlet Port

OS:PortList,
  {fc0c0230-cb1f-4d67-8b92-ac235acec07e}, !- Handle
  {53b8be2d-4a2e-42fd-b302-632ed41949db}; !- HVAC Component

OS:PortList,
  {dc04ace6-4fa6-490a-91f0-8a8cafe74368}, !- Handle
  {53b8be2d-4a2e-42fd-b302-632ed41949db}; !- HVAC Component

OS:PortList,
  {149a3e4a-2155-4667-be7a-937c4e114f62}, !- Handle
  {53b8be2d-4a2e-42fd-b302-632ed41949db}; !- HVAC Component

OS:Sizing:Zone,
  {70e26b63-15aa-43c8-a03f-8801451bc73e}, !- Handle
  {53b8be2d-4a2e-42fd-b302-632ed41949db}, !- Zone or ZoneList Name
  SupplyAirTemperature,                   !- Zone Cooling Design Supply Air Temperature Input Method
  14,                                     !- Zone Cooling Design Supply Air Temperature {C}
  11.11,                                  !- Zone Cooling Design Supply Air Temperature Difference {deltaC}
  SupplyAirTemperature,                   !- Zone Heating Design Supply Air Temperature Input Method
  40,                                     !- Zone Heating Design Supply Air Temperature {C}
  11.11,                                  !- Zone Heating Design Supply Air Temperature Difference {deltaC}
  0.0085,                                 !- Zone Cooling Design Supply Air Humidity Ratio {kg-H2O/kg-air}
  0.008,                                  !- Zone Heating Design Supply Air Humidity Ratio {kg-H2O/kg-air}
  ,                                       !- Zone Heating Sizing Factor
  ,                                       !- Zone Cooling Sizing Factor
  DesignDay,                              !- Cooling Design Air Flow Method
  ,                                       !- Cooling Design Air Flow Rate {m3/s}
  ,                                       !- Cooling Minimum Air Flow per Zone Floor Area {m3/s-m2}
  ,                                       !- Cooling Minimum Air Flow {m3/s}
  ,                                       !- Cooling Minimum Air Flow Fraction
  DesignDay,                              !- Heating Design Air Flow Method
  ,                                       !- Heating Design Air Flow Rate {m3/s}
  ,                                       !- Heating Maximum Air Flow per Zone Floor Area {m3/s-m2}
  ,                                       !- Heating Maximum Air Flow {m3/s}
  ,                                       !- Heating Maximum Air Flow Fraction
  No,                                     !- Account for Dedicated Outdoor Air System
  NeutralSupplyAir,                       !- Dedicated Outdoor Air System Control Strategy
  autosize,                               !- Dedicated Outdoor Air Low Setpoint Temperature for Design {C}
  autosize,                               !- Dedicated Outdoor Air High Setpoint Temperature for Design {C}
  Sensible Load Only No Latent Load,      !- Zone Load Sizing Method
  HumidityRatioDifference,                !- Zone Latent Cooling Design Supply Air Humidity Ratio Input Method
  ,                                       !- Zone Dehumidification Design Supply Air Humidity Ratio {kgWater/kgDryAir}
  0.005,                                  !- Zone Cooling Design Supply Air Humidity Ratio Difference {kgWater/kgDryAir}
  HumidityRatioDifference,                !- Zone Latent Heating Design Supply Air Humidity Ratio Input Method
  ,                                       !- Zone Humidification Design Supply Air Humidity Ratio {kgWater/kgDryAir}
  0.005,                                  !- Zone Humidification Design Supply Air Humidity Ratio Difference {kgWater/kgDryAir}
  ,                                       !- Zone Humidistat Dehumidification Set Point Schedule Name
  ,                                       !- Zone Humidistat Humidification Set Point Schedule Name
  ,                                       !- Design Zone Air Distribution Effectiveness in Cooling Mode
  ,                                       !- Design Zone Air Distribution Effectiveness in Heating Mode
  ,                                       !- Design Zone Secondary Recirculation Fraction {dimensionless}
  ,                                       !- Design Minimum Zone Ventilation Efficiency {dimensionless}
  Coincident;                             !- Sizing Option

OS:ZoneHVAC:EquipmentList,
  {a4399432-80c7-4ce4-b419-2bfb528f9e12}, !- Handle
  Zone HVAC Equipment List 2,             !- Name
  {53b8be2d-4a2e-42fd-b302-632ed41949db}; !- Thermal Zone

OS:AdditionalProperties,
  {24752c1d-ed2c-4968-a129-e8af3008ebc9}, !- Handle
  {53b8be2d-4a2e-42fd-b302-632ed41949db}, !- Object Name
  ObjectType,                             !- Feature Name 1
  String,                                 !- Feature Data Type 1
  attic - vented;                         !- Feature Value 1

OS:Space,
  {98bfc222-2126-4b04-b0cf-11e041ec3d26}, !- Handle
  attic - vented 1,                       !- Name
  ,                                       !- Space Type Name
  ,                                       !- Default Construction Set Name
  ,                                       !- Default Schedule Set Name
  ,                                       !- Direction of Relative North {deg}
  ,                                       !- X Origin {m}
  ,                                       !- Y Origin {m}
  ,                                       !- Z Origin {m}
  ,                                       !- Building Story Name
  {53b8be2d-4a2e-42fd-b302-632ed41949db}, !- Thermal Zone Name
  ,                                       !- Part of Total Floor Area
  ,                                       !- Design Specification Outdoor Air Object Name
  ,                                       !- Building Unit Name
  356.390921899745;                       !- Volume {m3}

OS:Material,
  {2b83674f-ff60-45a1-ad85-40ac3e0a5a05}, !- Handle
  asphalt or fiberglass shingles,         !- Name
  Rough,                                  !- Roughness
  0.00635,                                !- Thickness {m}
  0.162714,                               !- Conductivity {W/m-K}
  1121.4,                                 !- Density {kg/m3}
  1465.45,                                !- Specific Heat {J/kg-K}
  0.9,                                    !- Thermal Absorptance
  0.85,                                   !- Solar Absorptance