
OS:Version,
  {9cfd6422-9df9-4e70-8341-5694c9800cc4}, !- Handle
  3.9.0;                                  !- Version Identifier

OS:SimulationControl,
  {b412a53a-bc46-427f-81a8-a5f4a2f2463d}, !- Handle
  ,                                       !- Do Zone Sizing Calculation
  ,                                       !- Do System Sizing Calculation
  ,                                       !- Do Plant Sizing Calculation
  No;                                     !- Run Simulation for Sizing Periods

OS:Timestep,
  {b9e8882a-62bc-40dc-8221-b990a117a242}, !- Handle
  1;                                      !- Number of Timesteps per Hour

OS:ShadowCalculation,
  {2141e30f-3309-4647-baa2-d919e55b36dc}, !- Handle
  PolygonClipping,                        !- Shading Calculation Method
  ,                                       !- Shading Calculation Update Frequency Method
  20,                                     !- Shading Calculation Update Frequency
  200,                                    !- Maximum Figures in Shadow Overlap Calculations
  ,                                       !- Polygon Clipping Algorithm
  512,                                    !- Pixel Counting Resolution
  ,                                       !- Sky Diffuse Modeling Algorithm
  No,                                     !- Output External Shading Calculation Results
  No,                                     !- Disable Self-Shading Within Shading Zone Groups
  No;                                     !- Disable Self-Shading From Shading Zone Groups to Other Zones

OS:SurfaceConvectionAlgorithm:Outside,
  {a8d9ac20-5838-4927-b8b0-4e64710e166d}, !- Handle
  DOE-2;                                  !- Algorithm

OS:SurfaceConvectionAlgorithm:Inside,
  {f8d48d5b-6475-4ea7-bdba-f51f30098b45}, !- Handle
  TARP;                                   !- Algorithm

OS:ZoneCapacitanceMultiplier:ResearchSpecial,
  {08ed22d5-574b-49cd-a453-ecdeef553f59}, !- Handle
  7,                                      !- Temperature Capacity Multiplier
  15,                                     !- Humidity Capacity Multiplier
  ;                                       !- Carbon Dioxide Capacity Multiplier

OS:ConvergenceLimits,
  {2b564856-6dba-4091-baab-50885aa2474a}, !- Handle
  0;                                      !- Minimum System Timestep {minutes}

OS:RunPeriod,
  {17b0f223-cb77-49f6-b8b7-765b48cf2d57}, !- Handle
  Run Period 1,                           !- Name
  1,                                      !- Begin Month
  1,                                      !- Begin Day of Month
  12,                                     !- End Month
  31,                                     !- End Day of Month
  ,                                       !- Use Weather File Holidays and Special Days
  ,                                       !- Use Weather File Daylight Saving Period
  ,                                       !- Apply Weekend Holiday Rule
  ,                                       !- Use Weather File Rain Indicators
  ,                                       !- Use Weather File Snow Indicators
  ;                                       !- Number of Times Runperiod to be Repeated

OS:PerformancePrecisionTradeoffs,
  {4f78ee93-4cb2-488c-a27d-e369cbac0df1}, !- Handle
  ,                                       !- Use Coil Direct Solutions
  CarrollMRT;                             !- Zone Radiant Exchange Algorithm

OS:WeatherFile,
  {0e7ff4de-d425-4e18-8491-d1ec164fe0f0}, !- Handle
  Buffalo Niagara Intl Ap,                !- City
  NY,                                     !- State Province Region
  USA,                                    !- Country
  TMY3,                                   !- Data Source
  725280,                                 !- WMO Number
  42.93,                                  !- Latitude {deg}
  -78.73,                                 !- Longitude {deg}
  -5,                                     !- Time Zone {hr}
  215,                                    !- Elevation {m}
  /Users/nmoore/github/urbanopt-example-geojson-project/example_project/weather/USA_NY_Buffalo-Greater.Buffalo.Intl.AP.725280_TMY3.epw, !- Url
  6B50E0FF,                               !- Checksum
  ,                                       !- Start Date Actual Year
  Sunday;                                 !- Start Day of Week

OS:YearDescription,
  {4a96c528-443e-4f0b-b423-14c0106a59da}, !- Handle
  2007,                                   !- Calendar Year
  ,                                       !- Day of Week for Start Day
  ;                                       !- Is Leap Year

OS:Site,
  {66b0c09e-5f71-49b2-a1e5-64dfb23b2096}, !- Handle
  Buffalo Niagara Intl Ap_NY,             !- Name
  42.93,                                  !- Latitude {deg}
  -78.73,                                 !- Longitude {deg}
  -5,                                     !- Time Zone {hr}
  215,                                    !- Elevation {m}
  Suburbs,                                !- Terrain
  Yes;                                    !- Keep Site Location Information

OS:RunPeriodControl:DaylightSavingTime,
  {87ec2ac7-2533-49a9-b8ac-5dd86478d7f1}, !- Handle
  Mar 12,                                 !- Start Date
  Nov 5;                                  !- End Date

OS:Site:GroundTemperature:Shallow,
  {fd9e6e0b-9414-493c-b4a1-507eb3faca25}, !- Handle
  4.30207395723828,                       !- January Surface Ground Temperature {C}
  2.29327249652502,                       !- February Surface Ground Temperature {C}
  2.13240047156047,                       !- March Surface Ground Temperature {C}
  3.08567940719286,                       !- April Surface Ground Temperature {C}
  6.91256312497526,                       !- May Surface Ground Temperature {C}
  10.7216195949507,                       !- June Surface Ground Temperature {C}
  14.0238679822574,                       !- July Surface Ground Temperature {C}
  16.1157611184724,                       !- August Surface Ground Temperature {C}
  16.2934789303462,                       !- September Surface Ground Temperature {C}
  14.5920754632847,                       !- October Surface Ground Temperature {C}
  11.374036348653,                        !- November Surface Ground Temperature {C}
  7.68182621661674;                       !- December Surface Ground Temperature {C}

OS:ThermalZone,
  {b17dd816-7886-4d67-a66a-98f5ad959908}, !- Handle
  conditioned space,                      !- Name
  1,                                      !- Multiplier
  ,                                       !- Ceiling Height {m}
  346.03186535424,                        !- Volume {m3}
  ,                                       !- Floor Area {m2}
  ,                                       !- Zone Inside Convection Algorithm
  ,                                       !- Zone Outside Convection Algorithm
  ,                                       !- Zone Conditioning Equipment List Name
  {8eaac1c0-b068-438b-b5f8-97ffa6ae77e9}, !- Zone Air Inlet Port List
  {79c81315-683a-4b19-9dae-aeede2b1cec5}, !- Zone Air Exhaust Port List
  {5d82c169-0856-4a23-8766-64d1aa409945}, !- Zone Air Node Name
  {10308964-8612-4645-9201-3a539cfb0793}, !- Zone Return Air Port List
  ,                                       !- Primary Daylighting Control Name
  ,                                       !- Fraction of Zone Controlled by Primary Daylighting Control
  ,                                       !- Secondary Daylighting Control Name
  ,                                       !- Fraction of Zone Controlled by Secondary Daylighting Control
  ,                                       !- Illuminance Map Name
  ,                                       !- Group Rendering Name
  {f1311922-e648-46fb-a868-9a395e0e76fa}, !- Thermostat Name
  No;                                     !- Use Ideal Air Loads

OS:Node,
  {a9fe2acf-a478-4a00-996a-8550b4cbf6b7}, !- Handle
  Node 1,                                 !- Name
  {5d82c169-0856-4a23-8766-64d1aa409945}, !- Inlet Port
  ;                                       !- Outlet Port

OS:Connection,
  {5d82c169-0856-4a23-8766-64d1aa409945}, !- Handle
  {b17dd816-7886-4d67-a66a-98f5ad959908}, !- Source Object
  11,                                     !- Outlet Port
  {a9fe2acf-a478-4a00-996a-8550b4cbf6b7}, !- Target Object
  2;                                      !- Inlet Port

OS:PortList,
  {8eaac1c0-b068-438b-b5f8-97ffa6ae77e9}, !- Handle
  {b17dd816-7886-4d67-a66a-98f5ad959908}, !- HVAC Component
  {7e4ead6a-663a-4a54-a3d1-b56e04d307fa}; !- Port 1

OS:PortList,
  {79c81315-683a-4b19-9dae-aeede2b1cec5}, !- Handle
  {b17dd816-7886-4d67-a66a-98f5ad959908}; !- HVAC Component

OS:PortList,
  {10308964-8612-4645-9201-3a539cfb0793}, !- Handle
  {b17dd816-7886-4d67-a66a-98f5ad959908}, !- HVAC Component
  {6522c4b0-d90f-499a-9811-47def3ff1d9e}; !- Port 1

OS:Sizing:Zone,
  {2c5209f8-bd50-42d4-9742-5a37852a51dc}, !- Handle
  {b17dd816-7886-4d67-a66a-98f5ad959908}, !- Zone or ZoneList Name
  SupplyAirTemperature,                   !- Zone Cooling Design Supply Air Temperature Input Method
  14,                                     !- Zone Cooling Design Supply Air Temperature {C}
  11.11,                                  !- Zone Cooling Design Supply Air Temperature Difference {deltaC}
  SupplyAirTemperature,                   !- Zone Heating Design Supply Air Temperature Input Method
  40,                                     !- Zone Heating Design Supply Air Temperature {C}
  11.11,                                  !- Zone Heating Design Supply Air Temperature Difference {deltaC}
  0.0085,                                 !- Zone Cooling Design Supply Air Humidity Ratio {kg-H2O/kg-air}
  0.008,                                  !- Zone Heating Design Supply Air Humidity Ratio {kg-H2O/kg-air}
  ,                                       !- Zone Heating Sizing Factor
  ,                                       !- Zone Cooling Sizing Factor
  DesignDay,                              !- Cooling Design Air Flow Method
  ,                                       !- Cooling Design Air Flow Rate {m3/s}
  ,                                       !- Cooling Minimum Air Flow per Zone Floor Area {m3/s-m2}
  ,                                       !- Cooling Minimum Air Flow {m3/s}
  ,                                       !- Cooling Minimum Air Flow Fraction
  DesignDay,                              !- Heating Design Air Flow Method
  ,                                       !- Heating Design Air Flow Rate {m3/s}
  ,                                       !- Heating Maximum Air Flow per Zone Floor Area {m3/s-m2}
  ,                                       !- Heating Maximum Air Flow {m3/s}
  ,                                       !- Heating Maximum Air Flow Fraction
  No,                                     !- Account for Dedicated Outdoor Air System
  NeutralSupplyAir,                       !- Dedicated Outdoor Air System Control Strategy
  autosize,                               !- Dedicated Outdoor Air Low Setpoint Temperature for Design {C}
  autosize,                               !- Dedicated Outdoor Air High Setpoint Temperature for Design {C}
  Sensible Load Only No Latent Load,      !- Zone Load Sizing Method
  HumidityRatioDifference,                !- Zone Latent Cooling Design Supply Air Humidity Ratio Input Method
  ,                                       !- Zone Dehumidification Design Supply Air Humidity Ratio {kgWater/kgDryAir}
  0.005,                                  !- Zone Cooling Design Supply Air Humidity Ratio Difference {kgWater/kgDryAir}
  HumidityRatioDifference,                !- Zone Latent Heating Design Supply Air Humidity Ratio Input Method
  ,                                       !- Zone Humidification Design Supply Air Humidity Ratio {kgWater/kgDryAir}
  0.005,                                  !- Zone Humidification Design Supply Air Humidity Ratio Difference {kgWater/kgDryAir}
  ,                                       !- Zone Humidistat Dehumidification Set Point Schedule Name
  ,                                       !- Zone Humidistat Humidification Set Point Schedule Name
  ,                                       !- Design Zone Air Distribution Effectiveness in Cooling Mode
  ,                                       !- Design Zone Air Distribution Effectiveness in Heating Mode
  ,                                       !- Design Zone Secondary Recirculation Fraction {dimensionless}
  ,                                       !- Design Minimum Zone Ventilation Efficiency {dimensionless}
  Coincident;                             !- Sizing Option

OS:ZoneHVAC:EquipmentList,
  {04611614-96fa-44b6-9b8c-49e858e51f09}, !- Handle
  Zone HVAC Equipment List 1,             !- Name
  {b17dd816-7886-4d67-a66a-98f5ad959908}, !- Thermal Zone
  ,                                       !- Load Distribution Scheme
  {627654cc-572c-468f-b09d-25a981984836}, !- Zone Equipment 1
  1,                                      !- Zone Equipment Cooling Sequence 1
  1,                                      !- Zone Equipment Heating or No-Load Sequence 1
  {f4e513f5-ac04-4d53-accd-548fca25cd35}, !- Zone Equipment Sequential Cooling Fraction Schedule Name 1
  {a7d2b9c3-1a68-4a54-ae14-96f6bda065a0}; !- Zone Equipment Sequential Heating Fraction Schedule Name 1

OS:AdditionalProperties,
  {22aa9d55-e5fa-47ad-9432-12732c6e4b11}, !- Handle
  {b17dd816-7886-4d67-a66a-98f5ad959908}, !- Object Name
  ObjectType,                             !- Feature Name 1
  String,                                 !- Feature Data Type 1
  conditioned space;                      !- Feature Value 1

OS:Space,
  {c68a515f-ee4f-4c76-a552-91e0a31f0ec9}, !- Handle
  conditioned space 1,                    !- Name
  ,                                       !- Space Type Name
  ,                                       !- Default Construction Set Name
  ,                                       !- Default Schedule Set Name
  ,                                       !- Direction of Relative North {deg}
  ,                                       !- X Origin {m}
  ,                                       !- Y Origin {m}
  ,                                       !- Z Origin {m}
  ,                                       !- Building Story Name
  {b17dd816-7886-4d67-a66a-98f5ad959908}, !- Thermal Zone Name
  ,                                       !- Part of Total Floor Area
  ,                                       !- Design Specification Outdoor Air Object Name
  ,                                       !- Building Unit Name
  346.03186535424;                        !- Volume {m3}

OS:Schedule:Ruleset,
  {a12d2579-edd7-4773-a01b-86b6cdb5eddf}, !- Handle
  heating setpoint,                       !- Name
  {49d33083-a69f-4db2-9ad7-50b5d6a22ffe}, !- Schedule Type Limits Name
  {36b68379-3fe2-4b58-ba2d-b6663f45d4bb}; !- Default Day Schedule Name

OS:Schedule:Day,
  {36b68379-3fe2-4b58-ba2d-b6663f45d4bb}, !- Handle
  heating setpoint default day,           !- Name
  {49d33083-a69f-4db2-9ad7-50b5d6a22ffe}, !- Schedule Type Limits Name
  ,                                       !- Interpolate to Timestep
  24,                                     !- Hour 1
  0,                                      !- Minute 1
  0;                                      !- Value Until Time 1

OS:Schedule:Rule,
  {4e59641c-5378-4a9a-b8e4-805362535c19}, !- Handle
  heating setpoint allday rule,           !- Name
  {a12d2579-edd7-4773-a01b-86b6cdb5eddf}, !- Schedule Ruleset Name
  0,                                      !- Rule Order
  {b93165aa-f047-4247-9156-68bd1040cb7f}, !- Day Schedule Name
  Yes,                                    !- Apply Sunday
  Yes,                                    !- Apply Monday
  Yes,                                    !- Apply Tuesday
  Yes,                                    !- Apply Wednesday
  Yes,                                    !- Apply Thursday
  Yes,                                    !- Apply Friday
  Yes,                                    !- Apply Saturday
  DateRange,                              !- Date Specification Type
  1,                                      !- Start Month
  1,                                      !- Start Day
  12,                                     !- End Month
  31;                                     !- End Day

OS:Schedule:Day,
  {b93165aa-f047-4247-9156-68bd1040cb7f}, !- Handle
  heating setpoint day,                   !- Name
  {49d33083-a69f-4db2-9ad7-50b5d6a22ffe}, !- Schedule Type Limits Name
  ,                                       !- Interpolate to Timestep
  24,                                     !- Hour 1
  0,                                      !- Minute 1
  20;                                     !- Value Until Time 1

OS:Schedule:Ruleset,
  {c8c92947-ff2d-41e8-8a70-e6d2c2589b4e}, !- Handle
  cooling setpoint,                       !- Name
  {49d33083-a69f-4db2-9ad7-50b5d6a22ffe}, !- Schedule Type Limits Name
  {029619d2-9dfd-4a17-a38c-2de58d34ace3}; !- Default Day Schedule Name

OS:Schedule:Day,
  {029619d2-9dfd-4a17-a38c-2de58d34ace3}, !- Handle
  cooling setpoint default day,           !- Name
  {49d33083-a69f-4db2-9ad7-50b5d6a22ffe}, !- Schedule Type Limits Name
  ,                                       !- Interpolate to Timestep
  24,                                     !- Hour 1
  0,                                      !- Minute 1
  0;                                      !- Value Until Time 1

OS:Schedule:Rule,
  {0ebe9b1b-4f73-4e0b-aaf0-730daed61053}, !- Handle
  cooling setpoint allday rule,           !- Name
  {c8c92947-ff2d-41e8-8a70-e6d2c2589b4e}, !- Schedule Ruleset Name
  0,                                      !- Rule Order
  {f1ea0262-f5a8-42ae-b32d-bf0d27393121}, !- Day Schedule Name
  Yes,                                    !- Apply Sunday
  Yes,                                    !- Apply Monday
  Yes,                                    !- Apply Tuesday
  Yes,                                    !- Apply Wednesday
  Yes,                                    !- Apply Thursday
  Yes,                                    !- Apply Friday
  Yes,                                    !- Apply Saturday
  DateRange,                              !- Date Specification Type
  1,                                      !- Start Month
  1,                                      !- Start Day
  12,                                     !- End Month
  31;                                     !- End Day

OS:Schedule:Day,
  {f1ea0262-f5a8-42ae-b32d-bf0d27393121}, !- Handle
  cooling setpoint day,                   !- Name
  {49d33083-a69f-4db2-9ad7-50b5d6a22ffe}, !- Schedule Type Limits Name
  ,                                       !- Interpolate to Timestep
  24,                                     !- Hour 1
  0,                                      !- Minute 1
  25.5555555555556;                       !- Value Until Time 1

OS:ThermostatSetpoint:DualSetpoint,
  {f1311922-e648-46fb-a868-9a395e0e76fa}, !- Handle
  conditioned space temperature setpoint, !- Name
  {a12d2579-edd7-4773-a01b-86b6cdb5eddf}, !- Heating Setpoint Temperature Schedule Name
  {c8c92947-ff2d-41e8-8a70-e6d2c2589b4e}, !- Cooling Setpoint Temperature Schedule Name
  0;                                      !- Temperature Difference Between Cutout And Setpoint {deltaC}

OS:ScheduleTypeLimits,
  {49d33083-a69f-4db2-9ad7-50b5d6a22ffe}, !- Handle
  Temperature,                            !- Name
  ,                                       !- Lower Limit Value
  ,                                       !- Upper Limit Value
  Continuous,                             !- Numeric Type
  Temperature;                            !- Unit Type

OS:Surface,
  {7b5e977b-34ae-4633-bd9c-c5b937e3c1e3}, !- Handle
  Roof1,                                  !- Name
  RoofCeiling,                            !- Surface Type
  {66eb459f-6f86-4c74-af3a-6b0957f7ab6b}, !- Construction Name
  {0ea8f9b0-6952-4f99-9b14-cab2c0fc71e2}, !- Space Name
  Outdoors,                               !- Outside Boundary Condition
  ,                                       !- Outside Boundary Condition Object
  SunExposed,                             !- Sun Exposure
  WindExposed,                            !- Wind Exposure
  ,                                       !- View Factor to Ground
  ,                                       !- Number of Vertices
  -25.0448166683368, 35.3267874683368, 2.4384, !- X,Y,Z Vertex 1 {m}
  -25.0448166683368, 27.3603626312597, 6.42161241853859, !- X,Y,Z Vertex 2 {m}
  -16.1380829316632, 27.3603626312596, 6.42161241853859, !- X,Y,Z Vertex 3 {m}
  -16.1380829316632, 35.3267874683368, 2.4384; !- X,Y,Z Vertex 4 {m}

OS:AdditionalProperties,
  {c61972ec-0c2d-4b86-bfcc-aa36ab28188b}, !- Handle
  {7b5e977b-34ae-4633-bd9c-c5b937e3c1e3}, !- Object Name
  Length,                                 !- Feature Name 1
  Double,                                 !- Feature Data Type 1
  29.221567377538118,                     !- Feature Value 1
  Width,                                  !- Feature Name 2
  Double,                                 !- Feature Data Type 2
  29.221567377538118,                     !- Feature Value 2
  Azimuth,                                !- Feature Name 3
  Integer,                                !- Feature Data Type 3
  0,                                      !- Feature Value 3
  Tilt,                                   !- Feature Name 4
  Double,                                 !- Feature Data Type 4
  0.5,                                    !- Feature Value 4
  SurfaceType,                            !- Feature Name 5
  String,                                 !- Feature Data Type 5
  Roof;                                   !- Feature Value 5

OS:ThermalZone,
  {251b4848-d194-4136-9fa2-3117d8f33b50}, !- Handle
  attic - vented,                         !- Name
  1,                                      !- Multiplier
  ,                                       !- Ceiling Height {m}
  126.002877704413,                       !- Volume {m3}
  ,                                       !- Floor Area {m2}
  ,                                       !- Zone Inside Convection Algorithm
  ,                                       !- Zone Outside Convection Algorithm
  ,                                       !- Zone Conditioning Equipment List Name
  {28e8f4d1-b54e-4aa2-a5cb-c2fb45a3d0ca}, !- Zone Air Inlet Port List
  {46ebd443-8147-4b93-bcb2-bcf6ed183009}, !- Zone Air Exhaust Port List
  {513ff301-a450-4822-8636-751ac5b17685}, !- Zone Air Node Name
  {de6f22d7-44cc-48a2-8820-b31627133be6}, !- Zone Return Air Port List
  ,                                       !- Primary Daylighting Control Name
  ,                                       !- Fraction of Zone Controlled by Primary Daylighting Control
  ,                                       !- Secondary Daylighting Control Name
  ,                                       !- Fraction of Zone Controlled by Secondary Daylighting Control
  ,                                       !- Illuminance Map Name
  ,                                       !- Group Rendering Name
  ,                                       !- Thermostat Name
  No;                                     !- Use Ideal Air Loads

OS:Node,
  {77489d3d-2c36-401d-a04f-ae75e801bc17}, !- Handle
  Node 2,                                 !- Name
  {513ff301-a450-4822-8636-751ac5b17685}, !- Inlet Port
  ;                                       !- Outlet Port

OS:Connection,
  {513ff301-a450-4822-8636-751ac5b17685}, !- Handle
  {251b4848-d194-4136-9fa2-3117d8f33b50}, !- Source Object
  11,                                     !- Outlet Port
  {77489d3d-2c36-401d-a04f-ae75e801bc17}, !- Target Object
  2;                                      !- Inlet Port

OS:PortList,
  {28e8f4d1-b54e-4aa2-a5cb-c2fb45a3d0ca}, !- Handle
  {251b4848-d194-4136-9fa2-3117d8f33b50}; !- HVAC Component

OS:PortList,
  {46ebd443-8147-4b93-bcb2-bcf6ed183009}, !- Handle
  {251b4848-d194-4136-9fa2-3117d8f33b50}; !- HVAC Component

OS:PortList,
  {de6f22d7-44cc-48a2-8820-b31627133be6}, !- Handle
  {251b4848-d194-4136-9fa2-3117d8f33b50}; !- HVAC Component

OS:Sizing:Zone,
  {82c13828-ba4d-4969-afd8-c2fbb65f50e7}, !- Handle
  {251b4848-d194-4136-9fa2-3117d8f33b50}, !- Zone or ZoneList Name
  SupplyAirTemperature,                   !- Zone Cooling Design Supply Air Temperature Input Method
  14,                                     !- Zone Cooling Design Supply Air Temperature {C}
  11.11,                                  !- Zone Cooling Design Supply Air Temperature Difference {deltaC}
  SupplyAirTemperature,                   !- Zone Heating Design Supply Air Temperature Input Method
  40,                                     !- Zone Heating Design Supply Air Temperature {C}
  11.11,                                  !- Zone Heating Design Supply Air Temperature Difference {deltaC}
  0.0085,                                 !- Zone Cooling Design Supply Air Humidity Ratio {kg-H2O/kg-air}
  0.008,                                  !- Zone Heating Design Supply Air Humidity Ratio {kg-H2O/kg-air}
  ,                                       !- Zone Heating Sizing Factor
  ,                                       !- Zone Cooling Sizing Factor
  DesignDay,                              !- Cooling Design Air Flow Method
  ,                                       !- Cooling Design Air Flow Rate {m3/s}
  ,                                       !- Cooling Minimum Air Flow per Zone Floor Area {m3/s-m2}
  ,                                       !- Cooling Minimum Air Flow {m3/s}
  ,                                       !- Cooling Minimum Air Flow Fraction
  DesignDay,                              !- Heating Design Air Flow Method
  ,                                       !- Heating Design Air Flow Rate {m3/s}
  ,                                       !- Heating Maximum Air Flow per Zone Floor Area {m3/s-m2}
  ,                                       !- Heating Maximum Air Flow {m3/s}
  ,                                       !- Heating Maximum Air Flow Fraction
  No,                                     !- Account for Dedicated Outdoor Air System
  NeutralSupplyAir,                       !- Dedicated Outdoor Air System Control Strategy
  autosize,                               !- Dedicated Outdoor Air Low Setpoint Temperature for Design {C}
  autosize,                               !- Dedicated Outdoor Air High Setpoint Temperature for Design {C}
  Sensible Load Only No Latent Load,      !- Zone Load Sizing Method
  HumidityRatioDifference,                !- Zone Latent Cooling Design Supply Air Humidity Ratio Input Method
  ,                                       !- Zone Dehumidification Design Supply Air Humidity Ratio {kgWater/kgDryAir}
  0.005,                                  !- Zone Cooling Design Supply Air Humidity Ratio Difference {kgWater/kgDryAir}
  HumidityRatioDifference,                !- Zone Latent Heating Design Supply Air Humidity Ratio Input Method
  ,                                       !- Zone Humidification Design Supply Air Humidity Ratio {kgWater/kgDryAir}
  0.005,                                  !- Zone Humidification Design Supply Air Humidity Ratio Difference {kgWater/kgDryAir}
  ,                                       !- Zone Humidistat Dehumidification Set Point Schedule Name
  ,                                       !- Zone Humidistat Humidification Set Point Schedule Name
  ,                                       !- Design Zone Air Distribution Effectiveness in Cooling Mode
  ,                                       !- Design Zone Air Distribution Effectiveness in Heating Mode
  ,                                       !- Design Zone Secondary Recirculation Fraction {dimensionless}
  ,                                       !- Design Minimum Zone Ventilation Efficiency {dimensionless}
  Coincident;                             !- Sizing Option

OS:ZoneHVAC:EquipmentList,
  {7ad0190c-e9ab-48c0-a48e-6b89c6f17127}, !- Handle
  Zone HVAC Equipment List 2,             !- Name
  {251b4848-d194-4136-9fa2-3117d8f33b50}; !- Thermal Zone

OS:AdditionalProperties,
  {dcdd6b3a-e855-40ba-b793-77b07b087ea6}, !- Handle
  {251b4848-d194-4136-9fa2-3117d8f33b50}, !- Object Name
  ObjectType,                             !- Feature Name 1
  String,                                 !- Feature Data Type 1
  attic - vented;                         !- Feature Value 1

OS:Space,
  {0ea8f9b0-6952-4f99-9b14-cab2c0fc71e2}, !- Handle
  attic - vented 1,                       !- Name
  ,                                       !- Space Type Name
  ,                                       !- Default Construction Set Name
  ,                                       !- Default Schedule Set Name
  ,                                       !- Direction of Relative North {deg}
  ,                                       !- X Origin {m}
  ,                                       !- Y Origin {m}
  ,                                       !- Z Origin {m}
  ,                                       !- Building Story Name
  {251b4848-d194-4136-9fa2-3117d8f33b50}, !- Thermal Zone Name
  ,                                       !- Part of Total Floor Area
  ,                                       !- Design Specification Outdoor Air Object Name
  ,                                       !- Building Unit Name
  126.002877704413;                       !- Volume {m3}

OS:Material,
  {ac444c45-fcd0-4734-b3cc-06f9c1fd9876}, !- Handle
  asphalt or fiberglass shingles,         !- Name
  Rough,                                  !- Roughness
  0.00635,                                !- Thickness {m}
  0.162714,                               !- Conductivity {W/m-K}
  1121.4,                                 !- Density {kg/m3}
  1465.45,                                !- Specific Heat {J/kg-K}
  0.9,                                    !- Thermal Absorptance
  0.85,                                   !- Solar Absorptance