
OS:Version,
  {01d11e36-86c8-4d7b-a7cc-95574fdd4ac6}, !- Handle
  3.10.0;                                 !- Version Identifier

OS:SimulationControl,
  {2ac4b14c-68bd-4638-9c70-3662fd81deb3}, !- Handle
  ,                                       !- Do Zone Sizing Calculation
  ,                                       !- Do System Sizing Calculation
  ,                                       !- Do Plant Sizing Calculation
  No;                                     !- Run Simulation for Sizing Periods

OS:Timestep,
  {1433cca2-c119-42d6-b52b-3c6cbc8341af}, !- Handle
  1;                                      !- Number of Timesteps per Hour

OS:ShadowCalculation,
  {f61d9a5a-feb0-4819-8359-6f9570731a1b}, !- Handle
  PolygonClipping,                        !- Shading Calculation Method
  ,                                       !- Shading Calculation Update Frequency Method
  20,                                     !- Shading Calculation Update Frequency
  200,                                    !- Maximum Figures in Shadow Overlap Calculations
  ,                                       !- Polygon Clipping Algorithm
  512,                                    !- Pixel Counting Resolution
  ,                                       !- Sky Diffuse Modeling Algorithm
  No,                                     !- Output External Shading Calculation Results
  No,                                     !- Disable Self-Shading Within Shading Zone Groups
  No;                                     !- Disable Self-Shading From Shading Zone Groups to Other Zones

OS:SurfaceConvectionAlgorithm:Outside,
  {e1824adc-82e9-4380-9df6-5dba189a1a50}, !- Handle
  DOE-2;                                  !- Algorithm

OS:SurfaceConvectionAlgorithm:Inside,
  {019eab27-7226-4231-8177-755cb053b9cf}, !- Handle
  TARP;                                   !- Algorithm

OS:ZoneCapacitanceMultiplier:ResearchSpecial,
  {edc75073-07c9-4bb0-b30e-b526dfdb45ed}, !- Handle
  7,                                      !- Temperature Capacity Multiplier
  15,                                     !- Humidity Capacity Multiplier
  ;                                       !- Carbon Dioxide Capacity Multiplier

OS:ConvergenceLimits,
  {57e60e76-9e3d-492a-88d6-8efc7d81beb2}, !- Handle
  0;                                      !- Minimum System Timestep {minutes}

OS:RunPeriod,
  {3a73772b-44c0-4b7d-b977-289f9554799c}, !- Handle
  Run Period 1,                           !- Name
  1,                                      !- Begin Month
  1,                                      !- Begin Day of Month
  12,                                     !- End Month
  31,                                     !- End Day of Month
  ,                                       !- Use Weather File Holidays and Special Days
  ,                                       !- Use Weather File Daylight Saving Period
  ,                                       !- Apply Weekend Holiday Rule
  ,                                       !- Use Weather File Rain Indicators
  ,                                       !- Use Weather File Snow Indicators
  ;                                       !- Number of Times Runperiod to be Repeated

OS:PerformancePrecisionTradeoffs,
  {10121be6-34a3-4f94-9eeb-4b8b849cbfc8}, !- Handle
  ,                                       !- Use Coil Direct Solutions
  CarrollMRT;                             !- Zone Radiant Exchange Algorithm

OS:WeatherFile,
  {8f3ef45c-f81a-40a0-a65b-a8d7efac95ff}, !- Handle
  Buffalo Niagara Intl Ap,                !- City
  NY,                                     !- State Province Region
  USA,                                    !- Country
  TMY3,                                   !- Data Source
  725280,                                 !- WMO Number
  42.93,                                  !- Latitude {deg}
  -78.73,                                 !- Longitude {deg}
  -5,                                     !- Time Zone {hr}
  215,                                    !- Elevation {m}
  /Users/nmoore/github/urbanopt-example-geojson-project/example_project/weather/USA_NY_Buffalo-Greater.Buffalo.Intl.AP.725280_TMY3.epw, !- Url
  6B50E0FF,                               !- Checksum
  ,                                       !- Start Date Actual Year
  Sunday;                                 !- Start Day of Week

OS:YearDescription,
  {d21cc843-dac2-474b-8680-915349c3bcd9}, !- Handle
  2007,                                   !- Calendar Year
  ,                                       !- Day of Week for Start Day
  ;                                       !- Is Leap Year

OS:Site,
  {3b0515e2-d9a8-4821-b0c2-562b537d1100}, !- Handle
  Buffalo Niagara Intl Ap_NY,             !- Name
  42.93,                                  !- Latitude {deg}
  -78.73,                                 !- Longitude {deg}
  -5,                                     !- Time Zone {hr}
  215,                                    !- Elevation {m}
  Suburbs,                                !- Terrain
  Yes;                                    !- Keep Site Location Information

OS:RunPeriodControl:DaylightSavingTime,
  {f177c85d-b963-4d99-91f4-b3d2b38ffcea}, !- Handle
  Mar 12,                                 !- Start Date
  Nov 5;                                  !- End Date

OS:Site:GroundTemperature:Shallow,
  {cb31069e-1b9a-4f2f-b138-fc24b3b1feb2}, !- Handle
  4.30207395723828,                       !- January Surface Ground Temperature {C}
  2.29327249652502,                       !- February Surface Ground Temperature {C}
  2.13240047156047,                       !- March Surface Ground Temperature {C}
  3.08567940719286,                       !- April Surface Ground Temperature {C}
  6.91256312497526,                       !- May Surface Ground Temperature {C}
  10.7216195949507,                       !- June Surface Ground Temperature {C}
  14.0238679822574,                       !- July Surface Ground Temperature {C}
  16.1157611184724,                       !- August Surface Ground Temperature {C}
  16.2934789303462,                       !- September Surface Ground Temperature {C}
  14.5920754632847,                       !- October Surface Ground Temperature {C}
  11.374036348653,                        !- November Surface Ground Temperature {C}
  7.68182621661674;                       !- December Surface Ground Temperature {C}

OS:ThermalZone,
  {97015ce8-336a-45d1-8863-9efd19b5b143}, !- Handle
  conditioned space,                      !- Name
  1,                                      !- Multiplier
  ,                                       !- Ceiling Height {m}
  346.03186535424,                        !- Volume {m3}
  ,                                       !- Floor Area {m2}
  ,                                       !- Zone Inside Convection Algorithm
  ,                                       !- Zone Outside Convection Algorithm
  ,                                       !- Zone Conditioning Equipment List Name
  {bc1d2f85-9504-42c3-a275-2053ff40bc37}, !- Zone Air Inlet Port List
  {a86992f9-0f91-489f-9363-9076337afa28}, !- Zone Air Exhaust Port List
  {806bbaa2-43c9-416d-908a-8f1340512f42}, !- Zone Air Node Name
  {7700126b-631d-4102-ac98-8039e4596c2a}, !- Zone Return Air Port List
  ,                                       !- Primary Daylighting Control Name
  ,                                       !- Fraction of Zone Controlled by Primary Daylighting Control
  ,                                       !- Secondary Daylighting Control Name
  ,                                       !- Fraction of Zone Controlled by Secondary Daylighting Control
  ,                                       !- Illuminance Map Name
  ,                                       !- Group Rendering Name
  {b1f63173-d439-4051-8d64-28aab0e27ce1}, !- Thermostat Name
  No;                                     !- Use Ideal Air Loads

OS:Node,
  {491e9ad1-9481-4dcc-82bc-d4818fed49f9}, !- Handle
  Node 1,                                 !- Name
  {806bbaa2-43c9-416d-908a-8f1340512f42}, !- Inlet Port
  ;                                       !- Outlet Port

OS:Connection,
  {806bbaa2-43c9-416d-908a-8f1340512f42}, !- Handle
  {97015ce8-336a-45d1-8863-9efd19b5b143}, !- Source Object
  11,                                     !- Outlet Port
  {491e9ad1-9481-4dcc-82bc-d4818fed49f9}, !- Target Object
  2;                                      !- Inlet Port

OS:PortList,
  {bc1d2f85-9504-42c3-a275-2053ff40bc37}, !- Handle
  {97015ce8-336a-45d1-8863-9efd19b5b143}, !- HVAC Component
  {61cf5e9d-7ec2-4adf-800f-d8c541297409}; !- Port 1

OS:PortList,
  {a86992f9-0f91-489f-9363-9076337afa28}, !- Handle
  {97015ce8-336a-45d1-8863-9efd19b5b143}; !- HVAC Component

OS:PortList,
  {7700126b-631d-4102-ac98-8039e4596c2a}, !- Handle
  {97015ce8-336a-45d1-8863-9efd19b5b143}, !- HVAC Component
  {28ccfe62-8946-4a1f-b53b-29e4e62fecac}; !- Port 1

OS:Sizing:Zone,
  {0fe1ad5e-a8e3-42a6-9215-2d23aeda34d4}, !- Handle
  {97015ce8-336a-45d1-8863-9efd19b5b143}, !- Zone or ZoneList Name
  SupplyAirTemperature,                   !- Zone Cooling Design Supply Air Temperature Input Method
  14,                                     !- Zone Cooling Design Supply Air Temperature {C}
  11.11,                                  !- Zone Cooling Design Supply Air Temperature Difference {deltaC}
  SupplyAirTemperature,                   !- Zone Heating Design Supply Air Temperature Input Method
  40,                                     !- Zone Heating Design Supply Air Temperature {C}
  11.11,                                  !- Zone Heating Design Supply Air Temperature Difference {deltaC}
  0.0085,                                 !- Zone Cooling Design Supply Air Humidity Ratio {kg-H2O/kg-air}
  0.008,                                  !- Zone Heating Design Supply Air Humidity Ratio {kg-H2O/kg-air}
  ,                                       !- Zone Heating Sizing Factor
  ,                                       !- Zone Cooling Sizing Factor
  DesignDay,                              !- Cooling Design Air Flow Method
  ,                                       !- Cooling Design Air Flow Rate {m3/s}
  ,                                       !- Cooling Minimum Air Flow per Zone Floor Area {m3/s-m2}
  ,                                       !- Cooling Minimum Air Flow {m3/s}
  ,                                       !- Cooling Minimum Air Flow Fraction
  DesignDay,                              !- Heating Design Air Flow Method
  ,                                       !- Heating Design Air Flow Rate {m3/s}
  ,                                       !- Heating Maximum Air Flow per Zone Floor Area {m3/s-m2}
  ,                                       !- Heating Maximum Air Flow {m3/s}
  ,                                       !- Heating Maximum Air Flow Fraction
  No,                                     !- Account for Dedicated Outdoor Air System
  NeutralSupplyAir,                       !- Dedicated Outdoor Air System Control Strategy
  autosize,                               !- Dedicated Outdoor Air Low Setpoint Temperature for Design {C}
  autosize,                               !- Dedicated Outdoor Air High Setpoint Temperature for Design {C}
  Sensible Load Only No Latent Load,      !- Zone Load Sizing Method
  HumidityRatioDifference,                !- Zone Latent Cooling Design Supply Air Humidity Ratio Input Method
  ,                                       !- Zone Dehumidification Design Supply Air Humidity Ratio {kgWater/kgDryAir}
  0.005,                                  !- Zone Cooling Design Supply Air Humidity Ratio Difference {kgWater/kgDryAir}
  HumidityRatioDifference,                !- Zone Latent Heating Design Supply Air Humidity Ratio Input Method
  ,                                       !- Zone Humidification Design Supply Air Humidity Ratio {kgWater/kgDryAir}
  0.005,                                  !- Zone Humidification Design Supply Air Humidity Ratio Difference {kgWater/kgDryAir}
  ,                                       !- Zone Humidistat Dehumidification Set Point Schedule Name
  ,                                       !- Zone Humidistat Humidification Set Point Schedule Name
  ,                                       !- Design Zone Air Distribution Effectiveness in Cooling Mode
  ,                                       !- Design Zone Air Distribution Effectiveness in Heating Mode
  ,                                       !- Design Zone Secondary Recirculation Fraction {dimensionless}
  ,                                       !- Design Minimum Zone Ventilation Efficiency {dimensionless}
  Coincident;                             !- Sizing Option

OS:ZoneHVAC:EquipmentList,
  {aa9c0fd7-5fa6-479f-bb51-52cc621bfb66}, !- Handle
  Zone HVAC Equipment List 1,             !- Name
  {97015ce8-336a-45d1-8863-9efd19b5b143}, !- Thermal Zone
  ,                                       !- Load Distribution Scheme
  {28cc8a46-296c-4ac5-bda9-397583a010fe}, !- Zone Equipment 1
  1,                                      !- Zone Equipment Cooling Sequence 1
  1,                                      !- Zone Equipment Heating or No-Load Sequence 1
  {c0a41d6e-274d-41bd-b533-627a58be1d46}, !- Zone Equipment Sequential Cooling Fraction Schedule Name 1
  {338499dc-ec80-4e2e-bfed-0ce991a212ba}; !- Zone Equipment Sequential Heating Fraction Schedule Name 1

OS:AdditionalProperties,
  {60f439c3-44b3-4dac-90fd-885a743fe7dc}, !- Handle
  {97015ce8-336a-45d1-8863-9efd19b5b143}, !- Object Name
  ObjectType,                             !- Feature Name 1
  String,                                 !- Feature Data Type 1
  conditioned space;                      !- Feature Value 1

OS:Space,
  {e599154e-43b0-4513-be7e-cdb8ab43c0b9}, !- Handle
  conditioned space 1,                    !- Name
  ,                                       !- Space Type Name
  ,                                       !- Default Construction Set Name
  ,                                       !- Default Schedule Set Name
  ,                                       !- Direction of Relative North {deg}
  ,                                       !- X Origin {m}
  ,                                       !- Y Origin {m}
  ,                                       !- Z Origin {m}
  ,                                       !- Building Story Name
  {97015ce8-336a-45d1-8863-9efd19b5b143}, !- Thermal Zone Name
  ,                                       !- Part of Total Floor Area
  ,                                       !- Design Specification Outdoor Air Object Name
  ,                                       !- Building Unit Name
  346.03186535424;                        !- Volume {m3}

OS:Schedule:Ruleset,
  {f82e64ae-4ee3-4c41-bce7-a65da3e1ef27}, !- Handle
  heating setpoint,                       !- Name
  {dadae6f0-62d4-4404-8277-42cc1d4e091b}, !- Schedule Type Limits Name
  {5d156006-fd3d-4bcc-b696-2570aa59e067}; !- Default Day Schedule Name

OS:Schedule:Day,
  {5d156006-fd3d-4bcc-b696-2570aa59e067}, !- Handle
  heating setpoint default day,           !- Name
  {dadae6f0-62d4-4404-8277-42cc1d4e091b}, !- Schedule Type Limits Name
  ,                                       !- Interpolate to Timestep
  24,                                     !- Hour 1
  0,                                      !- Minute 1
  0;                                      !- Value Until Time 1

OS:Schedule:Rule,
  {ed61ed5b-5f6c-4497-ab8e-4d16b49711df}, !- Handle
  heating setpoint allday rule,           !- Name
  {f82e64ae-4ee3-4c41-bce7-a65da3e1ef27}, !- Schedule Ruleset Name
  0,                                      !- Rule Order
  {b330d5cb-368e-45f1-9f45-2af329d0f00b}, !- Day Schedule Name
  Yes,                                    !- Apply Sunday
  Yes,                                    !- Apply Monday
  Yes,                                    !- Apply Tuesday
  Yes,                                    !- Apply Wednesday
  Yes,                                    !- Apply Thursday
  Yes,                                    !- Apply Friday
  Yes,                                    !- Apply Saturday
  DateRange,                              !- Date Specification Type
  1,                                      !- Start Month
  1,                                      !- Start Day
  12,                                     !- End Month
  31;                                     !- End Day

OS:Schedule:Day,
  {b330d5cb-368e-45f1-9f45-2af329d0f00b}, !- Handle
  heating setpoint day,                   !- Name
  {dadae6f0-62d4-4404-8277-42cc1d4e091b}, !- Schedule Type Limits Name
  ,                                       !- Interpolate to Timestep
  24,                                     !- Hour 1
  0,                                      !- Minute 1
  20;                                     !- Value Until Time 1

OS:Schedule:Ruleset,
  {deaebe45-b0d8-4a88-a1c6-c6eace35accf}, !- Handle
  cooling setpoint,                       !- Name
  {dadae6f0-62d4-4404-8277-42cc1d4e091b}, !- Schedule Type Limits Name
  {e4d66122-8b45-4cf0-acf3-d4e7548f1fae}; !- Default Day Schedule Name

OS:Schedule:Day,
  {e4d66122-8b45-4cf0-acf3-d4e7548f1fae}, !- Handle
  cooling setpoint default day,           !- Name
  {dadae6f0-62d4-4404-8277-42cc1d4e091b}, !- Schedule Type Limits Name
  ,                                       !- Interpolate to Timestep
  24,                                     !- Hour 1
  0,                                      !- Minute 1
  0;                                      !- Value Until Time 1

OS:Schedule:Rule,
  {1c987a94-60be-455a-98b1-2c2b4f3078f9}, !- Handle
  cooling setpoint allday rule,           !- Name
  {deaebe45-b0d8-4a88-a1c6-c6eace35accf}, !- Schedule Ruleset Name
  0,                                      !- Rule Order
  {2f3c1d40-711d-408b-aee4-139ab9700b4e}, !- Day Schedule Name
  Yes,                                    !- Apply Sunday
  Yes,                                    !- Apply Monday
  Yes,                                    !- Apply Tuesday
  Yes,                                    !- Apply Wednesday
  Yes,                                    !- Apply Thursday
  Yes,                                    !- Apply Friday
  Yes,                                    !- Apply Saturday
  DateRange,                              !- Date Specification Type
  1,                                      !- Start Month
  1,                                      !- Start Day
  12,                                     !- End Month
  31;                                     !- End Day

OS:Schedule:Day,
  {2f3c1d40-711d-408b-aee4-139ab9700b4e}, !- Handle
  cooling setpoint day,                   !- Name
  {dadae6f0-62d4-4404-8277-42cc1d4e091b}, !- Schedule Type Limits Name
  ,                                       !- Interpolate to Timestep
  24,                                     !- Hour 1
  0,                                      !- Minute 1
  25.5555555555556;                       !- Value Until Time 1

OS:ThermostatSetpoint:DualSetpoint,
  {b1f63173-d439-4051-8d64-28aab0e27ce1}, !- Handle
  conditioned space temperature setpoint, !- Name
  {f82e64ae-4ee3-4c41-bce7-a65da3e1ef27}, !- Heating Setpoint Temperature Schedule Name
  {deaebe45-b0d8-4a88-a1c6-c6eace35accf}, !- Cooling Setpoint Temperature Schedule Name
  0;                                      !- Temperature Difference Between Cutout And Setpoint {deltaC}

OS:ScheduleTypeLimits,
  {dadae6f0-62d4-4404-8277-42cc1d4e091b}, !- Handle
  Temperature,                            !- Name
  ,                                       !- Lower Limit Value
  ,                                       !- Upper Limit Value
  Continuous,                             !- Numeric Type
  Temperature;                            !- Unit Type

OS:Surface,
  {4df83a2d-bc9f-45dd-9464-e35f2d67c0e8}, !- Handle
  Roof1,                                  !- Name
  RoofCeiling,                            !- Surface Type
  {64ab1a47-b8a5-4b9a-aef8-efd63f958e4a}, !- Construction Name
  {dde056be-110b-468d-bc01-aba6dddf5eaf}, !- Space Name
  Outdoors,                               !- Outside Boundary Condition
  ,                                       !- Outside Boundary Condition Object
  SunExposed,                             !- Sun Exposure
  WindExposed,                            !- Wind Exposure
  ,                                       !- View Factor to Ground
  ,                                       !- Number of Vertices
  -25.0448166683368, 35.3267874683368, 2.4384, !- X,Y,Z Vertex 1 {m}
  -25.0448166683368, 27.3603626312597, 6.42161241853859, !- X,Y,Z Vertex 2 {m}
  -16.1380829316632, 27.3603626312596, 6.42161241853859, !- X,Y,Z Vertex 3 {m}
  -16.1380829316632, 35.3267874683368, 2.4384; !- X,Y,Z Vertex 4 {m}

OS:AdditionalProperties,
  {5451e6bc-5f9a-4fea-8f77-f5fbdf707cf7}, !- Handle
  {4df83a2d-bc9f-45dd-9464-e35f2d67c0e8}, !- Object Name
  Length,                                 !- Feature Name 1
  Double,                                 !- Feature Data Type 1
  29.221567377538118,                     !- Feature Value 1
  Width,                                  !- Feature Name 2
  Double,                                 !- Feature Data Type 2
  29.221567377538118,                     !- Feature Value 2
  Azimuth,                                !- Feature Name 3
  Integer,                                !- Feature Data Type 3
  0,                                      !- Feature Value 3
  Tilt,                                   !- Feature Name 4
  Double,                                 !- Feature Data Type 4
  0.5,                                    !- Feature Value 4
  SurfaceType,                            !- Feature Name 5
  String,                                 !- Feature Data Type 5
  Roof;                                   !- Feature Value 5

OS:ThermalZone,
  {b50a879a-72a3-4ddb-a8e1-990591a03aa3}, !- Handle
  attic - vented,                         !- Name
  1,                                      !- Multiplier
  ,                                       !- Ceiling Height {m}
  126.003218814318,                       !- Volume {m3}
  ,                                       !- Floor Area {m2}
  ,                                       !- Zone Inside Convection Algorithm
  ,                                       !- Zone Outside Convection Algorithm
  ,                                       !- Zone Conditioning Equipment List Name
  {0ed404ef-068c-4408-a67d-53562f667f06}, !- Zone Air Inlet Port List
  {f1d4e12a-1708-4156-9054-70c2cb4d82e4}, !- Zone Air Exhaust Port List
  {a114de36-6669-4813-99e8-1d3d8f513070}, !- Zone Air Node Name
  {0db6ff88-b15a-4e1e-a980-09dfc23aa959}, !- Zone Return Air Port List
  ,                                       !- Primary Daylighting Control Name
  ,                                       !- Fraction of Zone Controlled by Primary Daylighting Control
  ,                                       !- Secondary Daylighting Control Name
  ,                                       !- Fraction of Zone Controlled by Secondary Daylighting Control
  ,                                       !- Illuminance Map Name
  ,                                       !- Group Rendering Name
  ,                                       !- Thermostat Name
  No;                                     !- Use Ideal Air Loads

OS:Node,
  {ba36c046-c044-4cfb-9f4e-da4dbd9dc2f2}, !- Handle
  Node 2,                                 !- Name
  {a114de36-6669-4813-99e8-1d3d8f513070}, !- Inlet Port
  ;                                       !- Outlet Port

OS:Connection,
  {a114de36-6669-4813-99e8-1d3d8f513070}, !- Handle
  {b50a879a-72a3-4ddb-a8e1-990591a03aa3}, !- Source Object
  11,                                     !- Outlet Port
  {ba36c046-c044-4cfb-9f4e-da4dbd9dc2f2}, !- Target Object
  2;                                      !- Inlet Port

OS:PortList,
  {0ed404ef-068c-4408-a67d-53562f667f06}, !- Handle
  {b50a879a-72a3-4ddb-a8e1-990591a03aa3}; !- HVAC Component

OS:PortList,
  {f1d4e12a-1708-4156-9054-70c2cb4d82e4}, !- Handle
  {b50a879a-72a3-4ddb-a8e1-990591a03aa3}; !- HVAC Component

OS:PortList,
  {0db6ff88-b15a-4e1e-a980-09dfc23aa959}, !- Handle
  {b50a879a-72a3-4ddb-a8e1-990591a03aa3}; !- HVAC Component

OS:Sizing:Zone,
  {1d5cdcf0-aecf-4b1d-8979-504732513488}, !- Handle
  {b50a879a-72a3-4ddb-a8e1-990591a03aa3}, !- Zone or ZoneList Name
  SupplyAirTemperature,                   !- Zone Cooling Design Supply Air Temperature Input Method
  14,                                     !- Zone Cooling Design Supply Air Temperature {C}
  11.11,                                  !- Zone Cooling Design Supply Air Temperature Difference {deltaC}
  SupplyAirTemperature,                   !- Zone Heating Design Supply Air Temperature Input Method
  40,                                     !- Zone Heating Design Supply Air Temperature {C}
  11.11,                                  !- Zone Heating Design Supply Air Temperature Difference {deltaC}
  0.0085,                                 !- Zone Cooling Design Supply Air Humidity Ratio {kg-H2O/kg-air}
  0.008,                                  !- Zone Heating Design Supply Air Humidity Ratio {kg-H2O/kg-air}
  ,                                       !- Zone Heating Sizing Factor
  ,                                       !- Zone Cooling Sizing Factor
  DesignDay,                              !- Cooling Design Air Flow Method
  ,                                       !- Cooling Design Air Flow Rate {m3/s}
  ,                                       !- Cooling Minimum Air Flow per Zone Floor Area {m3/s-m2}
  ,                                       !- Cooling Minimum Air Flow {m3/s}
  ,                                       !- Cooling Minimum Air Flow Fraction
  DesignDay,                              !- Heating Design Air Flow Method
  ,                                       !- Heating Design Air Flow Rate {m3/s}
  ,                                       !- Heating Maximum Air Flow per Zone Floor Area {m3/s-m2}
  ,                                       !- Heating Maximum Air Flow {m3/s}
  ,                                       !- Heating Maximum Air Flow Fraction
  No,                                     !- Account for Dedicated Outdoor Air System
  NeutralSupplyAir,                       !- Dedicated Outdoor Air System Control Strategy
  autosize,                               !- Dedicated Outdoor Air Low Setpoint Temperature for Design {C}
  autosize,                               !- Dedicated Outdoor Air High Setpoint Temperature for Design {C}
  Sensible Load Only No Latent Load,      !- Zone Load Sizing Method
  HumidityRatioDifference,                !- Zone Latent Cooling Design Supply Air Humidity Ratio Input Method
  ,                                       !- Zone Dehumidification Design Supply Air Humidity Ratio {kgWater/kgDryAir}
  0.005,                                  !- Zone Cooling Design Supply Air Humidity Ratio Difference {kgWater/kgDryAir}
  HumidityRatioDifference,                !- Zone Latent Heating Design Supply Air Humidity Ratio Input Method
  ,                                       !- Zone Humidification Design Supply Air Humidity Ratio {kgWater/kgDryAir}
  0.005,                                  !- Zone Humidification Design Supply Air Humidity Ratio Difference {kgWater/kgDryAir}
  ,                                       !- Zone Humidistat Dehumidification Set Point Schedule Name
  ,                                       !- Zone Humidistat Humidification Set Point Schedule Name
  ,                                       !- Design Zone Air Distribution Effectiveness in Cooling Mode
  ,                                       !- Design Zone Air Distribution Effectiveness in Heating Mode
  ,                                       !- Design Zone Secondary Recirculation Fraction {dimensionless}
  ,                                       !- Design Minimum Zone Ventilation Efficiency {dimensionless}
  Coincident;                             !- Sizing Option

OS:ZoneHVAC:EquipmentList,
  {b32c3a27-b741-4e01-87e8-6697408aebec}, !- Handle
  Zone HVAC Equipment List 2,             !- Name
  {b50a879a-72a3-4ddb-a8e1-990591a03aa3}; !- Thermal Zone

OS:AdditionalProperties,
  {18f1a51b-474c-429c-b6c6-25e04a38d9ae}, !- Handle
  {b50a879a-72a3-4ddb-a8e1-990591a03aa3}, !- Object Name
  ObjectType,                             !- Feature Name 1
  String,                                 !- Feature Data Type 1
  attic - vented;                         !- Feature Value 1

OS:Space,
  {dde056be-110b-468d-bc01-aba6dddf5eaf}, !- Handle
  attic - vented 1,                       !- Name
  ,                                       !- Space Type Name
  ,                                       !- Default Construction Set Name
  ,                                       !- Default Schedule Set Name
  ,                                       !- Direction of Relative North {deg}
  ,                                       !- X Origin {m}
  ,                                       !- Y Origin {m}
  ,                                       !- Z Origin {m}
  ,                                       !- Building Story Name
  {b50a879a-72a3-4ddb-a8e1-990591a03aa3}, !- Thermal Zone Name
  ,                                       !- Part of Total Floor Area
  ,                                       !- Design Specification Outdoor Air Object Name
  ,                                       !- Building Unit Name
  126.003218814318;                       !- Volume {m3}

OS:Material,
  {bfe987c7-5ad4-4be9-978f-5d5f984cbafe}, !- Handle
  asphalt or fiberglass shingles,         !- Name
  Rough,                                  !- Roughness
  0.00635,                                !- Thickness {m}
  0.162714,                               !- Conductivity {W/m-K}
  1121.4,                                 !- Density {kg/m3}
  1465.45,                                !- Specific Heat {J/kg-K}
  0.9,                                    !- Thermal Absorptance
  0.85,                                   !- Solar Absorptance