
OS:Version,
  {3a25ab72-dac5-4c6a-ace3-90f338f8eb5f}, !- Handle
  3.10.0;                                 !- Version Identifier

OS:SimulationControl,
  {18317558-cdc8-4dc0-b872-3f40ec80a37b}, !- Handle
  ,                                       !- Do Zone Sizing Calculation
  ,                                       !- Do System Sizing Calculation
  ,                                       !- Do Plant Sizing Calculation
  No;                                     !- Run Simulation for Sizing Periods

OS:Timestep,
  {9cbb91f2-a0de-4ea4-8c1f-dab239bfe069}, !- Handle
  1;                                      !- Number of Timesteps per Hour

OS:ShadowCalculation,
  {a164fcce-0fd8-4f7b-8806-01e0eb652c97}, !- Handle
  PolygonClipping,                        !- Shading Calculation Method
  ,                                       !- Shading Calculation Update Frequency Method
  20,                                     !- Shading Calculation Update Frequency
  200,                                    !- Maximum Figures in Shadow Overlap Calculations
  ,                                       !- Polygon Clipping Algorithm
  512,                                    !- Pixel Counting Resolution
  ,                                       !- Sky Diffuse Modeling Algorithm
  No,                                     !- Output External Shading Calculation Results
  No,                                     !- Disable Self-Shading Within Shading Zone Groups
  No;                                     !- Disable Self-Shading From Shading Zone Groups to Other Zones

OS:SurfaceConvectionAlgorithm:Outside,
  {b78e6175-ede8-441c-97a3-34cecb7f086a}, !- Handle
  DOE-2;                                  !- Algorithm

OS:SurfaceConvectionAlgorithm:Inside,
  {9256e704-f7b0-4cf2-a96c-d1deefd921a2}, !- Handle
  TARP;                                   !- Algorithm

OS:ZoneCapacitanceMultiplier:ResearchSpecial,
  {8ce41f4f-ccc6-4f88-88b4-fdd6ffea6ab4}, !- Handle
  7,                                      !- Temperature Capacity Multiplier
  15,                                     !- Humidity Capacity Multiplier
  ;                                       !- Carbon Dioxide Capacity Multiplier

OS:ConvergenceLimits,
  {bd67f434-1a54-43bb-b1ca-ced40c882ea8}, !- Handle
  0;                                      !- Minimum System Timestep {minutes}

OS:RunPeriod,
  {9c091321-cba9-4855-ae96-49a3d3fbc786}, !- Handle
  Run Period 1,                           !- Name
  1,                                      !- Begin Month
  1,                                      !- Begin Day of Month
  12,                                     !- End Month
  31,                                     !- End Day of Month
  ,                                       !- Use Weather File Holidays and Special Days
  ,                                       !- Use Weather File Daylight Saving Period
  ,                                       !- Apply Weekend Holiday Rule
  ,                                       !- Use Weather File Rain Indicators
  ,                                       !- Use Weather File Snow Indicators
  ;                                       !- Number of Times Runperiod to be Repeated

OS:PerformancePrecisionTradeoffs,
  {2fab0ccc-53e6-43ba-9871-1f5f354ce38d}, !- Handle
  ,                                       !- Use Coil Direct Solutions
  CarrollMRT;                             !- Zone Radiant Exchange Algorithm

OS:WeatherFile,
  {684da97e-b5f7-42bb-ad98-4a236edd9c6e}, !- Handle
  Buffalo Niagara Intl Ap,                !- City
  NY,                                     !- State Province Region
  USA,                                    !- Country
  TMY3,                                   !- Data Source
  725280,                                 !- WMO Number
  42.93,                                  !- Latitude {deg}
  -78.73,                                 !- Longitude {deg}
  -5,                                     !- Time Zone {hr}
  215,                                    !- Elevation {m}
  /Users/nmoore/github/urbanopt-example-geojson-project/example_project/weather/USA_NY_Buffalo-Greater.Buffalo.Intl.AP.725280_TMY3.epw, !- Url
  6B50E0FF,                               !- Checksum
  ,                                       !- Start Date Actual Year
  Sunday;                                 !- Start Day of Week

OS:YearDescription,
  {97ab6421-e537-431a-813c-bdd4ddf888d8}, !- Handle
  2007,                                   !- Calendar Year
  ,                                       !- Day of Week for Start Day
  ;                                       !- Is Leap Year

OS:Site,
  {92e58d39-6d85-4d16-a055-9c833e8ba1ad}, !- Handle
  Buffalo Niagara Intl Ap_NY,             !- Name
  42.93,                                  !- Latitude {deg}
  -78.73,                                 !- Longitude {deg}
  -5,                                     !- Time Zone {hr}
  215,                                    !- Elevation {m}
  Suburbs,                                !- Terrain
  Yes;                                    !- Keep Site Location Information

OS:RunPeriodControl:DaylightSavingTime,
  {dad0057c-654d-4cfe-a57b-38b4357c6187}, !- Handle
  Mar 12,                                 !- Start Date
  Nov 5;                                  !- End Date

OS:Site:GroundTemperature:Shallow,
  {b326410f-12ef-4f05-b115-3219c271f45d}, !- Handle
  4.30207395723828,                       !- January Surface Ground Temperature {C}
  2.29327249652502,                       !- February Surface Ground Temperature {C}
  2.13240047156047,                       !- March Surface Ground Temperature {C}
  3.08567940719286,                       !- April Surface Ground Temperature {C}
  6.91256312497526,                       !- May Surface Ground Temperature {C}
  10.7216195949507,                       !- June Surface Ground Temperature {C}
  14.0238679822574,                       !- July Surface Ground Temperature {C}
  16.1157611184724,                       !- August Surface Ground Temperature {C}
  16.2934789303462,                       !- September Surface Ground Temperature {C}
  14.5920754632847,                       !- October Surface Ground Temperature {C}
  11.374036348653,                        !- November Surface Ground Temperature {C}
  7.68182621661674;                       !- December Surface Ground Temperature {C}

OS:ThermalZone,
  {d5099424-ebe2-4c06-9882-6b2e92abe6ff}, !- Handle
  conditioned space,                      !- Name
  1,                                      !- Multiplier
  ,                                       !- Ceiling Height {m}
  692.06373070848,                        !- Volume {m3}
  ,                                       !- Floor Area {m2}
  ,                                       !- Zone Inside Convection Algorithm
  ,                                       !- Zone Outside Convection Algorithm
  ,                                       !- Zone Conditioning Equipment List Name
  {28de9aec-cddd-4485-8a14-781f9cc55e6b}, !- Zone Air Inlet Port List
  {30c3e529-2998-4bd4-ae4c-4b3e5310a3ea}, !- Zone Air Exhaust Port List
  {7b937cc4-46ac-4bef-9f85-8f64dae0158c}, !- Zone Air Node Name
  {e2359c51-c93e-4bf6-b24b-c54ddabdec11}, !- Zone Return Air Port List
  ,                                       !- Primary Daylighting Control Name
  ,                                       !- Fraction of Zone Controlled by Primary Daylighting Control
  ,                                       !- Secondary Daylighting Control Name
  ,                                       !- Fraction of Zone Controlled by Secondary Daylighting Control
  ,                                       !- Illuminance Map Name
  ,                                       !- Group Rendering Name
  {6de07fa2-197b-47cf-9f08-56b88618c916}, !- Thermostat Name
  No;                                     !- Use Ideal Air Loads

OS:Node,
  {bb4b8ece-7fe4-45b0-8414-b454a1c4ce8e}, !- Handle
  Node 1,                                 !- Name
  {7b937cc4-46ac-4bef-9f85-8f64dae0158c}, !- Inlet Port
  ;                                       !- Outlet Port

OS:Connection,
  {7b937cc4-46ac-4bef-9f85-8f64dae0158c}, !- Handle
  {d5099424-ebe2-4c06-9882-6b2e92abe6ff}, !- Source Object
  11,                                     !- Outlet Port
  {bb4b8ece-7fe4-45b0-8414-b454a1c4ce8e}, !- Target Object
  2;                                      !- Inlet Port

OS:PortList,
  {28de9aec-cddd-4485-8a14-781f9cc55e6b}, !- Handle
  {d5099424-ebe2-4c06-9882-6b2e92abe6ff}, !- HVAC Component
  {ead8313b-37b5-4538-93dc-2235a6403d21}; !- Port 1

OS:PortList,
  {30c3e529-2998-4bd4-ae4c-4b3e5310a3ea}, !- Handle
  {d5099424-ebe2-4c06-9882-6b2e92abe6ff}; !- HVAC Component

OS:PortList,
  {e2359c51-c93e-4bf6-b24b-c54ddabdec11}, !- Handle
  {d5099424-ebe2-4c06-9882-6b2e92abe6ff}, !- HVAC Component
  {ecc92d4a-6002-4c2c-aee1-645672a1e2fd}; !- Port 1

OS:Sizing:Zone,
  {d1dc5b8f-702c-4291-8ae1-943719875b4c}, !- Handle
  {d5099424-ebe2-4c06-9882-6b2e92abe6ff}, !- Zone or ZoneList Name
  SupplyAirTemperature,                   !- Zone Cooling Design Supply Air Temperature Input Method
  14,                                     !- Zone Cooling Design Supply Air Temperature {C}
  11.11,                                  !- Zone Cooling Design Supply Air Temperature Difference {deltaC}
  SupplyAirTemperature,                   !- Zone Heating Design Supply Air Temperature Input Method
  40,                                     !- Zone Heating Design Supply Air Temperature {C}
  11.11,                                  !- Zone Heating Design Supply Air Temperature Difference {deltaC}
  0.0085,                                 !- Zone Cooling Design Supply Air Humidity Ratio {kg-H2O/kg-air}
  0.008,                                  !- Zone Heating Design Supply Air Humidity Ratio {kg-H2O/kg-air}
  ,                                       !- Zone Heating Sizing Factor
  ,                                       !- Zone Cooling Sizing Factor
  DesignDay,                              !- Cooling Design Air Flow Method
  ,                                       !- Cooling Design Air Flow Rate {m3/s}
  ,                                       !- Cooling Minimum Air Flow per Zone Floor Area {m3/s-m2}
  ,                                       !- Cooling Minimum Air Flow {m3/s}
  ,                                       !- Cooling Minimum Air Flow Fraction
  DesignDay,                              !- Heating Design Air Flow Method
  ,                                       !- Heating Design Air Flow Rate {m3/s}
  ,                                       !- Heating Maximum Air Flow per Zone Floor Area {m3/s-m2}
  ,                                       !- Heating Maximum Air Flow {m3/s}
  ,                                       !- Heating Maximum Air Flow Fraction
  No,                                     !- Account for Dedicated Outdoor Air System
  NeutralSupplyAir,                       !- Dedicated Outdoor Air System Control Strategy
  autosize,                               !- Dedicated Outdoor Air Low Setpoint Temperature for Design {C}
  autosize,                               !- Dedicated Outdoor Air High Setpoint Temperature for Design {C}
  Sensible Load Only No Latent Load,      !- Zone Load Sizing Method
  HumidityRatioDifference,                !- Zone Latent Cooling Design Supply Air Humidity Ratio Input Method
  ,                                       !- Zone Dehumidification Design Supply Air Humidity Ratio {kgWater/kgDryAir}
  0.005,                                  !- Zone Cooling Design Supply Air Humidity Ratio Difference {kgWater/kgDryAir}
  HumidityRatioDifference,                !- Zone Latent Heating Design Supply Air Humidity Ratio Input Method
  ,                                       !- Zone Humidification Design Supply Air Humidity Ratio {kgWater/kgDryAir}
  0.005,                                  !- Zone Humidification Design Supply Air Humidity Ratio Difference {kgWater/kgDryAir}
  ,                                       !- Zone Humidistat Dehumidification Set Point Schedule Name
  ,                                       !- Zone Humidistat Humidification Set Point Schedule Name
  ,                                       !- Design Zone Air Distribution Effectiveness in Cooling Mode
  ,                                       !- Design Zone Air Distribution Effectiveness in Heating Mode
  ,                                       !- Design Zone Secondary Recirculation Fraction {dimensionless}
  ,                                       !- Design Minimum Zone Ventilation Efficiency {dimensionless}
  Coincident;                             !- Sizing Option

OS:ZoneHVAC:EquipmentList,
  {f6d035e2-17f7-4a0c-9bbc-296ecdc4924f}, !- Handle
  Zone HVAC Equipment List 1,             !- Name
  {d5099424-ebe2-4c06-9882-6b2e92abe6ff}, !- Thermal Zone
  ,                                       !- Load Distribution Scheme
  {43049ce0-60f5-47d2-9dd0-4d4d20d7be91}, !- Zone Equipment 1
  1,                                      !- Zone Equipment Cooling Sequence 1
  1,                                      !- Zone Equipment Heating or No-Load Sequence 1
  {ab39bc23-4cb0-4bb8-8119-96f4c0a5a06b}, !- Zone Equipment Sequential Cooling Fraction Schedule Name 1
  {3c6990c9-ac3a-4a53-9c57-1aa012a9ff0b}, !- Zone Equipment Sequential Heating Fraction Schedule Name 1
  {d7059991-5256-4efb-82bd-1710c2dbfb4e}, !- Zone Equipment 2
  2,                                      !- Zone Equipment Cooling Sequence 2
  2,                                      !- Zone Equipment Heating or No-Load Sequence 2
  {04c7906d-ad93-4eda-aef9-01ea3b3d69ca}, !- Zone Equipment Sequential Cooling Fraction Schedule Name 2
  {35e73ad2-fb7d-45ef-941d-5a33bdc2423c}; !- Zone Equipment Sequential Heating Fraction Schedule Name 2

OS:AdditionalProperties,
  {3f1809a8-79b0-4bd5-ab1b-ea968713f847}, !- Handle
  {d5099424-ebe2-4c06-9882-6b2e92abe6ff}, !- Object Name
  ObjectType,                             !- Feature Name 1
  String,                                 !- Feature Data Type 1
  conditioned space;                      !- Feature Value 1

OS:Space,
  {c871c472-3b76-473b-bb8d-689cf0a97471}, !- Handle
  conditioned space 1,                    !- Name
  ,                                       !- Space Type Name
  ,                                       !- Default Construction Set Name
  ,                                       !- Default Schedule Set Name
  ,                                       !- Direction of Relative North {deg}
  ,                                       !- X Origin {m}
  ,                                       !- Y Origin {m}
  ,                                       !- Z Origin {m}
  ,                                       !- Building Story Name
  {d5099424-ebe2-4c06-9882-6b2e92abe6ff}, !- Thermal Zone Name
  ,                                       !- Part of Total Floor Area
  ,                                       !- Design Specification Outdoor Air Object Name
  ,                                       !- Building Unit Name
  692.06373070848;                        !- Volume {m3}

OS:Schedule:Ruleset,
  {298bb988-9334-40a5-a0cd-33f355d6afb0}, !- Handle
  heating setpoint,                       !- Name
  {f59baa76-1d4d-4521-88e9-213ce4514f96}, !- Schedule Type Limits Name
  {fdb6ecd3-dd26-4457-bcc0-fa392f1866d8}; !- Default Day Schedule Name

OS:Schedule:Day,
  {fdb6ecd3-dd26-4457-bcc0-fa392f1866d8}, !- Handle
  heating setpoint default day,           !- Name
  {f59baa76-1d4d-4521-88e9-213ce4514f96}, !- Schedule Type Limits Name
  ,                                       !- Interpolate to Timestep
  24,                                     !- Hour 1
  0,                                      !- Minute 1
  0;                                      !- Value Until Time 1

OS:Schedule:Rule,
  {b3a43bcf-b8b6-4cf5-a912-b33e71433d03}, !- Handle
  heating setpoint allday rule,           !- Name
  {298bb988-9334-40a5-a0cd-33f355d6afb0}, !- Schedule Ruleset Name
  0,                                      !- Rule Order
  {f8dc9566-0b59-498a-937c-f97114a44654}, !- Day Schedule Name
  Yes,                                    !- Apply Sunday
  Yes,                                    !- Apply Monday
  Yes,                                    !- Apply Tuesday
  Yes,                                    !- Apply Wednesday
  Yes,                                    !- Apply Thursday
  Yes,                                    !- Apply Friday
  Yes,                                    !- Apply Saturday
  DateRange,                              !- Date Specification Type
  1,                                      !- Start Month
  1,                                      !- Start Day
  12,                                     !- End Month
  31;                                     !- End Day

OS:Schedule:Day,
  {f8dc9566-0b59-498a-937c-f97114a44654}, !- Handle
  heating setpoint day,                   !- Name
  {f59baa76-1d4d-4521-88e9-213ce4514f96}, !- Schedule Type Limits Name
  ,                                       !- Interpolate to Timestep
  24,                                     !- Hour 1
  0,                                      !- Minute 1
  20;                                     !- Value Until Time 1

OS:Schedule:Ruleset,
  {d26646a7-cf73-4df0-8c43-330e198056da}, !- Handle
  cooling setpoint,                       !- Name
  {f59baa76-1d4d-4521-88e9-213ce4514f96}, !- Schedule Type Limits Name
  {05a73b66-eeda-4ce9-89ea-35fb0eac9b3f}; !- Default Day Schedule Name

OS:Schedule:Day,
  {05a73b66-eeda-4ce9-89ea-35fb0eac9b3f}, !- Handle
  cooling setpoint default day,           !- Name
  {f59baa76-1d4d-4521-88e9-213ce4514f96}, !- Schedule Type Limits Name
  ,                                       !- Interpolate to Timestep
  24,                                     !- Hour 1
  0,                                      !- Minute 1
  0;                                      !- Value Until Time 1

OS:Schedule:Rule,
  {e64049d4-542a-400f-8728-57b44980962e}, !- Handle
  cooling setpoint allday rule,           !- Name
  {d26646a7-cf73-4df0-8c43-330e198056da}, !- Schedule Ruleset Name
  0,                                      !- Rule Order
  {0fb465e4-f6af-49e0-beff-4a91a36d4cca}, !- Day Schedule Name
  Yes,                                    !- Apply Sunday
  Yes,                                    !- Apply Monday
  Yes,                                    !- Apply Tuesday
  Yes,                                    !- Apply Wednesday
  Yes,                                    !- Apply Thursday
  Yes,                                    !- Apply Friday
  Yes,                                    !- Apply Saturday
  DateRange,                              !- Date Specification Type
  1,                                      !- Start Month
  1,                                      !- Start Day
  12,                                     !- End Month
  31;                                     !- End Day

OS:Schedule:Day,
  {0fb465e4-f6af-49e0-beff-4a91a36d4cca}, !- Handle
  cooling setpoint day,                   !- Name
  {f59baa76-1d4d-4521-88e9-213ce4514f96}, !- Schedule Type Limits Name
  ,                                       !- Interpolate to Timestep
  24,                                     !- Hour 1
  0,                                      !- Minute 1
  25.5555555555556;                       !- Value Until Time 1

OS:ThermostatSetpoint:DualSetpoint,
  {6de07fa2-197b-47cf-9f08-56b88618c916}, !- Handle
  conditioned space temperature setpoint, !- Name
  {298bb988-9334-40a5-a0cd-33f355d6afb0}, !- Heating Setpoint Temperature Schedule Name
  {d26646a7-cf73-4df0-8c43-330e198056da}, !- Cooling Setpoint Temperature Schedule Name
  0;                                      !- Temperature Difference Between Cutout And Setpoint {deltaC}

OS:ScheduleTypeLimits,
  {f59baa76-1d4d-4521-88e9-213ce4514f96}, !- Handle
  Temperature,                            !- Name
  ,                                       !- Lower Limit Value
  ,                                       !- Upper Limit Value
  Continuous,                             !- Numeric Type
  Temperature;                            !- Unit Type

OS:Surface,
  {3f9a22b3-cc42-49f9-a097-5cecd6a26380}, !- Handle
  Roof1,                                  !- Name
  RoofCeiling,                            !- Surface Type
  {f42059fd-7032-4a70-931d-65e0ca1ca3b2}, !- Construction Name
  {95fd88fa-cd2a-4f05-bd74-0c9e4373a7b3}, !- Space Name
  Outdoors,                               !- Outside Boundary Condition
  ,                                       !- Outside Boundary Condition Object
  SunExposed,                             !- Sun Exposure
  WindExposed,                            !- Wind Exposure
  ,                                       !- View Factor to Ground
  ,                                       !- Number of Vertices
  -26.9347048849634, 58.0557891618865, 2.4384, !- X,Y,Z Vertex 1 {m}
  -26.9347048849634, 46.7895631136661, 8.0715130241102, !- X,Y,Z Vertex 2 {m}
  -14.3386812381136, 46.7895631136661, 8.0715130241102, !- X,Y,Z Vertex 3 {m}
  -14.3386812381136, 58.0557891618865, 2.4384; !- X,Y,Z Vertex 4 {m}

OS:AdditionalProperties,
  {dd96ef1c-2a3c-4828-802b-595d20223f5a}, !- Handle
  {3f9a22b3-cc42-49f9-a097-5cecd6a26380}, !- Object Name
  Length,                                 !- Feature Name 1
  Double,                                 !- Feature Data Type 1
  41.325536899113608,                     !- Feature Value 1
  Width,                                  !- Feature Name 2
  Double,                                 !- Feature Data Type 2
  41.325536899113601,                     !- Feature Value 2
  Azimuth,                                !- Feature Name 3
  Integer,                                !- Feature Data Type 3
  0,                                      !- Feature Value 3
  Tilt,                                   !- Feature Name 4
  Double,                                 !- Feature Data Type 4
  0.5,                                    !- Feature Value 4
  SurfaceType,                            !- Feature Name 5
  String,                                 !- Feature Data Type 5
  Roof;                                   !- Feature Value 5

OS:ThermalZone,
  {10ef54a7-e0c9-480c-a616-60cc5a2a5c19}, !- Handle
  attic - vented,                         !- Name
  1,                                      !- Multiplier
  ,                                       !- Ceiling Height {m}
  356.390921899745,                       !- Volume {m3}
  ,                                       !- Floor Area {m2}
  ,                                       !- Zone Inside Convection Algorithm
  ,                                       !- Zone Outside Convection Algorithm
  ,                                       !- Zone Conditioning Equipment List Name
  {e78f8204-00f0-4987-8c3b-b604edf70ffc}, !- Zone Air Inlet Port List
  {5022aca0-9585-438f-b2ac-6fff9d17d824}, !- Zone Air Exhaust Port List
  {3f684bda-3481-4c12-b0d4-7d109603fb64}, !- Zone Air Node Name
  {f4488013-e414-440a-b793-f888ec211d66}, !- Zone Return Air Port List
  ,                                       !- Primary Daylighting Control Name
  ,                                       !- Fraction of Zone Controlled by Primary Daylighting Control
  ,                                       !- Secondary Daylighting Control Name
  ,                                       !- Fraction of Zone Controlled by Secondary Daylighting Control
  ,                                       !- Illuminance Map Name
  ,                                       !- Group Rendering Name
  ,                                       !- Thermostat Name
  No;                                     !- Use Ideal Air Loads

OS:Node,
  {0ce680ce-7ac2-4fd0-87e3-1577948422d9}, !- Handle
  Node 2,                                 !- Name
  {3f684bda-3481-4c12-b0d4-7d109603fb64}, !- Inlet Port
  ;                                       !- Outlet Port

OS:Connection,
  {3f684bda-3481-4c12-b0d4-7d109603fb64}, !- Handle
  {10ef54a7-e0c9-480c-a616-60cc5a2a5c19}, !- Source Object
  11,                                     !- Outlet Port
  {0ce680ce-7ac2-4fd0-87e3-1577948422d9}, !- Target Object
  2;                                      !- Inlet Port

OS:PortList,
  {e78f8204-00f0-4987-8c3b-b604edf70ffc}, !- Handle
  {10ef54a7-e0c9-480c-a616-60cc5a2a5c19}; !- HVAC Component

OS:PortList,
  {5022aca0-9585-438f-b2ac-6fff9d17d824}, !- Handle
  {10ef54a7-e0c9-480c-a616-60cc5a2a5c19}; !- HVAC Component

OS:PortList,
  {f4488013-e414-440a-b793-f888ec211d66}, !- Handle
  {10ef54a7-e0c9-480c-a616-60cc5a2a5c19}; !- HVAC Component

OS:Sizing:Zone,
  {6892ea16-6af6-47cc-a77d-902f97c081eb}, !- Handle
  {10ef54a7-e0c9-480c-a616-60cc5a2a5c19}, !- Zone or ZoneList Name
  SupplyAirTemperature,                   !- Zone Cooling Design Supply Air Temperature Input Method
  14,                                     !- Zone Cooling Design Supply Air Temperature {C}
  11.11,                                  !- Zone Cooling Design Supply Air Temperature Difference {deltaC}
  SupplyAirTemperature,                   !- Zone Heating Design Supply Air Temperature Input Method
  40,                                     !- Zone Heating Design Supply Air Temperature {C}
  11.11,                                  !- Zone Heating Design Supply Air Temperature Difference {deltaC}
  0.0085,                                 !- Zone Cooling Design Supply Air Humidity Ratio {kg-H2O/kg-air}
  0.008,                                  !- Zone Heating Design Supply Air Humidity Ratio {kg-H2O/kg-air}
  ,                                       !- Zone Heating Sizing Factor
  ,                                       !- Zone Cooling Sizing Factor
  DesignDay,                              !- Cooling Design Air Flow Method
  ,                                       !- Cooling Design Air Flow Rate {m3/s}
  ,                                       !- Cooling Minimum Air Flow per Zone Floor Area {m3/s-m2}
  ,                                       !- Cooling Minimum Air Flow {m3/s}
  ,                                       !- Cooling Minimum Air Flow Fraction
  DesignDay,                              !- Heating Design Air Flow Method
  ,                                       !- Heating Design Air Flow Rate {m3/s}
  ,                                       !- Heating Maximum Air Flow per Zone Floor Area {m3/s-m2}
  ,                                       !- Heating Maximum Air Flow {m3/s}
  ,                                       !- Heating Maximum Air Flow Fraction
  No,                                     !- Account for Dedicated Outdoor Air System
  NeutralSupplyAir,                       !- Dedicated Outdoor Air System Control Strategy
  autosize,                               !- Dedicated Outdoor Air Low Setpoint Temperature for Design {C}
  autosize,                               !- Dedicated Outdoor Air High Setpoint Temperature for Design {C}
  Sensible Load Only No Latent Load,      !- Zone Load Sizing Method
  HumidityRatioDifference,                !- Zone Latent Cooling Design Supply Air Humidity Ratio Input Method
  ,                                       !- Zone Dehumidification Design Supply Air Humidity Ratio {kgWater/kgDryAir}
  0.005,                                  !- Zone Cooling Design Supply Air Humidity Ratio Difference {kgWater/kgDryAir}
  HumidityRatioDifference,                !- Zone Latent Heating Design Supply Air Humidity Ratio Input Method
  ,                                       !- Zone Humidification Design Supply Air Humidity Ratio {kgWater/kgDryAir}
  0.005,                                  !- Zone Humidification Design Supply Air Humidity Ratio Difference {kgWater/kgDryAir}
  ,                                       !- Zone Humidistat Dehumidification Set Point Schedule Name
  ,                                       !- Zone Humidistat Humidification Set Point Schedule Name
  ,                                       !- Design Zone Air Distribution Effectiveness in Cooling Mode
  ,                                       !- Design Zone Air Distribution Effectiveness in Heating Mode
  ,                                       !- Design Zone Secondary Recirculation Fraction {dimensionless}
  ,                                       !- Design Minimum Zone Ventilation Efficiency {dimensionless}
  Coincident;                             !- Sizing Option

OS:ZoneHVAC:EquipmentList,
  {67d50190-e342-4a32-96ef-6edc8c06e268}, !- Handle
  Zone HVAC Equipment List 2,             !- Name
  {10ef54a7-e0c9-480c-a616-60cc5a2a5c19}; !- Thermal Zone

OS:AdditionalProperties,
  {9a63ff0a-5590-4431-88c2-1542aa36c003}, !- Handle
  {10ef54a7-e0c9-480c-a616-60cc5a2a5c19}, !- Object Name
  ObjectType,                             !- Feature Name 1
  String,                                 !- Feature Data Type 1
  attic - vented;                         !- Feature Value 1

OS:Space,
  {95fd88fa-cd2a-4f05-bd74-0c9e4373a7b3}, !- Handle
  attic - vented 1,                       !- Name
  ,                                       !- Space Type Name
  ,                                       !- Default Construction Set Name
  ,                                       !- Default Schedule Set Name
  ,                                       !- Direction of Relative North {deg}
  ,                                       !- X Origin {m}
  ,                                       !- Y Origin {m}
  ,                                       !- Z Origin {m}
  ,                                       !- Building Story Name
  {10ef54a7-e0c9-480c-a616-60cc5a2a5c19}, !- Thermal Zone Name
  ,                                       !- Part of Total Floor Area
  ,                                       !- Design Specification Outdoor Air Object Name
  ,                                       !- Building Unit Name
  356.390921899745;                       !- Volume {m3}

OS:Material,
  {c02e9e74-ccec-4c6a-a695-bc39d43d9f47}, !- Handle
  asphalt or fiberglass shingles,         !- Name