
OS:Version,
  {75e3d8dc-56be-4dbf-bd28-b0d1afaf0b72}, !- Handle
  3.9.0;                                  !- Version Identifier

OS:SimulationControl,
  {70d599be-86c1-45c3-b558-2a673265dc29}, !- Handle
  ,                                       !- Do Zone Sizing Calculation
  ,                                       !- Do System Sizing Calculation
  ,                                       !- Do Plant Sizing Calculation
  No;                                     !- Run Simulation for Sizing Periods

OS:Timestep,
  {8b7e9338-14c6-4e3c-a8ec-ccb3e22aa0d0}, !- Handle
  1;                                      !- Number of Timesteps per Hour

OS:ShadowCalculation,
  {2dc2361b-20a9-4282-b89e-427792d45eba}, !- Handle
  PolygonClipping,                        !- Shading Calculation Method
  ,                                       !- Shading Calculation Update Frequency Method
  20,                                     !- Shading Calculation Update Frequency
  200,                                    !- Maximum Figures in Shadow Overlap Calculations
  ,                                       !- Polygon Clipping Algorithm
  512,                                    !- Pixel Counting Resolution
  ,                                       !- Sky Diffuse Modeling Algorithm
  No,                                     !- Output External Shading Calculation Results
  No,                                     !- Disable Self-Shading Within Shading Zone Groups
  No;                                     !- Disable Self-Shading From Shading Zone Groups to Other Zones

OS:SurfaceConvectionAlgorithm:Outside,
  {a9b7bb4e-df9a-4efa-8fcf-02e3fc84d302}, !- Handle
  DOE-2;                                  !- Algorithm

OS:SurfaceConvectionAlgorithm:Inside,
  {a21efa6e-8d09-4f0d-9c4c-dc6ade23f959}, !- Handle
  TARP;                                   !- Algorithm

OS:ZoneCapacitanceMultiplier:ResearchSpecial,
  {e3990e4a-e886-4cef-95db-37206de84f3b}, !- Handle
  7,                                      !- Temperature Capacity Multiplier
  15,                                     !- Humidity Capacity Multiplier
  ;                                       !- Carbon Dioxide Capacity Multiplier

OS:ConvergenceLimits,
  {3355647b-7a64-4469-a5e2-5b2143492d18}, !- Handle
  0;                                      !- Minimum System Timestep {minutes}

OS:RunPeriod,
  {504d4bd9-3a2f-4d3d-8ad1-b6c6eb57ae16}, !- Handle
  Run Period 1,                           !- Name
  1,                                      !- Begin Month
  1,                                      !- Begin Day of Month
  12,                                     !- End Month
  31,                                     !- End Day of Month
  ,                                       !- Use Weather File Holidays and Special Days
  ,                                       !- Use Weather File Daylight Saving Period
  ,                                       !- Apply Weekend Holiday Rule
  ,                                       !- Use Weather File Rain Indicators
  ,                                       !- Use Weather File Snow Indicators
  ;                                       !- Number of Times Runperiod to be Repeated

OS:PerformancePrecisionTradeoffs,
  {5d30ffc1-db76-4a1f-9a01-d0b27acd5176}, !- Handle
  ,                                       !- Use Coil Direct Solutions
  CarrollMRT;                             !- Zone Radiant Exchange Algorithm

OS:WeatherFile,
  {d48ae63b-f334-4a87-834d-ae94f58b2308}, !- Handle
  Buffalo Niagara Intl Ap,                !- City
  NY,                                     !- State Province Region
  USA,                                    !- Country
  TMY3,                                   !- Data Source
  725280,                                 !- WMO Number
  42.93,                                  !- Latitude {deg}
  -78.73,                                 !- Longitude {deg}
  -5,                                     !- Time Zone {hr}
  215,                                    !- Elevation {m}
  /Users/nmoore/github/urbanopt-example-geojson-project/example_project/weather/USA_NY_Buffalo-Greater.Buffalo.Intl.AP.725280_TMY3.epw, !- Url
  6B50E0FF,                               !- Checksum
  ,                                       !- Start Date Actual Year
  Sunday;                                 !- Start Day of Week

OS:YearDescription,
  {8e8ad768-a5ff-4504-a74c-9caba8c9eccf}, !- Handle
  2007,                                   !- Calendar Year
  ,                                       !- Day of Week for Start Day
  ;                                       !- Is Leap Year

OS:Site,
  {84ce2fbb-f7fc-4a92-9348-5f3e0deeb166}, !- Handle
  Buffalo Niagara Intl Ap_NY,             !- Name
  42.93,                                  !- Latitude {deg}
  -78.73,                                 !- Longitude {deg}
  -5,                                     !- Time Zone {hr}
  215,                                    !- Elevation {m}
  Suburbs,                                !- Terrain
  Yes;                                    !- Keep Site Location Information

OS:RunPeriodControl:DaylightSavingTime,
  {43dfa647-caeb-4c24-925a-7997d747fffc}, !- Handle
  Mar 12,                                 !- Start Date
  Nov 5;                                  !- End Date

OS:Site:GroundTemperature:Shallow,
  {b9cb5f62-9b01-4d4d-a0ea-12700b043ae5}, !- Handle
  4.30207395723828,                       !- January Surface Ground Temperature {C}
  2.29327249652502,                       !- February Surface Ground Temperature {C}
  2.13240047156047,                       !- March Surface Ground Temperature {C}
  3.08567940719286,                       !- April Surface Ground Temperature {C}
  6.91256312497526,                       !- May Surface Ground Temperature {C}
  10.7216195949507,                       !- June Surface Ground Temperature {C}
  14.0238679822574,                       !- July Surface Ground Temperature {C}
  16.1157611184724,                       !- August Surface Ground Temperature {C}
  16.2934789303462,                       !- September Surface Ground Temperature {C}
  14.5920754632847,                       !- October Surface Ground Temperature {C}
  11.374036348653,                        !- November Surface Ground Temperature {C}
  7.68182621661674;                       !- December Surface Ground Temperature {C}

OS:ThermalZone,
  {470bfe74-9ac3-4e6c-865c-b3448bd16565}, !- Handle
  conditioned space,                      !- Name
  1,                                      !- Multiplier
  ,                                       !- Ceiling Height {m}
  692.06373070848,                        !- Volume {m3}
  ,                                       !- Floor Area {m2}
  ,                                       !- Zone Inside Convection Algorithm
  ,                                       !- Zone Outside Convection Algorithm
  ,                                       !- Zone Conditioning Equipment List Name
  {fa439713-084b-4143-af74-00d2ac487169}, !- Zone Air Inlet Port List
  {daa79134-b1e9-4d36-8554-59ae2a373a87}, !- Zone Air Exhaust Port List
  {88bbf233-13c6-4143-90bb-73711907fb90}, !- Zone Air Node Name
  {2a9c09c9-a907-467d-a0cc-58c71ee0eb35}, !- Zone Return Air Port List
  ,                                       !- Primary Daylighting Control Name
  ,                                       !- Fraction of Zone Controlled by Primary Daylighting Control
  ,                                       !- Secondary Daylighting Control Name
  ,                                       !- Fraction of Zone Controlled by Secondary Daylighting Control
  ,                                       !- Illuminance Map Name
  ,                                       !- Group Rendering Name
  {84a7b8ce-6ce9-446c-b7cf-4e4e76315605}, !- Thermostat Name
  No;                                     !- Use Ideal Air Loads

OS:Node,
  {d75dae4e-e8e4-4686-b3ac-b88d50751a1b}, !- Handle
  Node 1,                                 !- Name
  {88bbf233-13c6-4143-90bb-73711907fb90}, !- Inlet Port
  ;                                       !- Outlet Port

OS:Connection,
  {88bbf233-13c6-4143-90bb-73711907fb90}, !- Handle
  {470bfe74-9ac3-4e6c-865c-b3448bd16565}, !- Source Object
  11,                                     !- Outlet Port
  {d75dae4e-e8e4-4686-b3ac-b88d50751a1b}, !- Target Object
  2;                                      !- Inlet Port

OS:PortList,
  {fa439713-084b-4143-af74-00d2ac487169}, !- Handle
  {470bfe74-9ac3-4e6c-865c-b3448bd16565}, !- HVAC Component
  {1d988129-2c04-4dec-af1a-3a75ae645be9}; !- Port 1

OS:PortList,
  {daa79134-b1e9-4d36-8554-59ae2a373a87}, !- Handle
  {470bfe74-9ac3-4e6c-865c-b3448bd16565}; !- HVAC Component

OS:PortList,
  {2a9c09c9-a907-467d-a0cc-58c71ee0eb35}, !- Handle
  {470bfe74-9ac3-4e6c-865c-b3448bd16565}, !- HVAC Component
  {bfd7b47c-cc54-48d6-b188-b828e5ca4eb1}; !- Port 1

OS:Sizing:Zone,
  {070b994f-8aa1-4e7e-a885-8bacf0bbadf2}, !- Handle
  {470bfe74-9ac3-4e6c-865c-b3448bd16565}, !- Zone or ZoneList Name
  SupplyAirTemperature,                   !- Zone Cooling Design Supply Air Temperature Input Method
  14,                                     !- Zone Cooling Design Supply Air Temperature {C}
  11.11,                                  !- Zone Cooling Design Supply Air Temperature Difference {deltaC}
  SupplyAirTemperature,                   !- Zone Heating Design Supply Air Temperature Input Method
  40,                                     !- Zone Heating Design Supply Air Temperature {C}
  11.11,                                  !- Zone Heating Design Supply Air Temperature Difference {deltaC}
  0.0085,                                 !- Zone Cooling Design Supply Air Humidity Ratio {kg-H2O/kg-air}
  0.008,                                  !- Zone Heating Design Supply Air Humidity Ratio {kg-H2O/kg-air}
  ,                                       !- Zone Heating Sizing Factor
  ,                                       !- Zone Cooling Sizing Factor
  DesignDay,                              !- Cooling Design Air Flow Method
  ,                                       !- Cooling Design Air Flow Rate {m3/s}
  ,                                       !- Cooling Minimum Air Flow per Zone Floor Area {m3/s-m2}
  ,                                       !- Cooling Minimum Air Flow {m3/s}
  ,                                       !- Cooling Minimum Air Flow Fraction
  DesignDay,                              !- Heating Design Air Flow Method
  ,                                       !- Heating Design Air Flow Rate {m3/s}
  ,                                       !- Heating Maximum Air Flow per Zone Floor Area {m3/s-m2}
  ,                                       !- Heating Maximum Air Flow {m3/s}
  ,                                       !- Heating Maximum Air Flow Fraction
  No,                                     !- Account for Dedicated Outdoor Air System
  NeutralSupplyAir,                       !- Dedicated Outdoor Air System Control Strategy
  autosize,                               !- Dedicated Outdoor Air Low Setpoint Temperature for Design {C}
  autosize,                               !- Dedicated Outdoor Air High Setpoint Temperature for Design {C}
  Sensible Load Only No Latent Load,      !- Zone Load Sizing Method
  HumidityRatioDifference,                !- Zone Latent Cooling Design Supply Air Humidity Ratio Input Method
  ,                                       !- Zone Dehumidification Design Supply Air Humidity Ratio {kgWater/kgDryAir}
  0.005,                                  !- Zone Cooling Design Supply Air Humidity Ratio Difference {kgWater/kgDryAir}
  HumidityRatioDifference,                !- Zone Latent Heating Design Supply Air Humidity Ratio Input Method
  ,                                       !- Zone Humidification Design Supply Air Humidity Ratio {kgWater/kgDryAir}
  0.005,                                  !- Zone Humidification Design Supply Air Humidity Ratio Difference {kgWater/kgDryAir}
  ,                                       !- Zone Humidistat Dehumidification Set Point Schedule Name
  ,                                       !- Zone Humidistat Humidification Set Point Schedule Name
  ,                                       !- Design Zone Air Distribution Effectiveness in Cooling Mode
  ,                                       !- Design Zone Air Distribution Effectiveness in Heating Mode
  ,                                       !- Design Zone Secondary Recirculation Fraction {dimensionless}
  ,                                       !- Design Minimum Zone Ventilation Efficiency {dimensionless}
  Coincident;                             !- Sizing Option

OS:ZoneHVAC:EquipmentList,
  {fa2c6031-43d5-4895-b80d-19575be4b739}, !- Handle
  Zone HVAC Equipment List 1,             !- Name
  {470bfe74-9ac3-4e6c-865c-b3448bd16565}, !- Thermal Zone
  ,                                       !- Load Distribution Scheme
  {1446dcd8-4e1c-464d-9315-27ac0b123258}, !- Zone Equipment 1
  1,                                      !- Zone Equipment Cooling Sequence 1
  1,                                      !- Zone Equipment Heating or No-Load Sequence 1
  {e4106a42-f552-4020-8df1-3bcb5fdcd6b1}, !- Zone Equipment Sequential Cooling Fraction Schedule Name 1
  {2b279884-8ad2-41ae-8e37-b39f046e0179}, !- Zone Equipment Sequential Heating Fraction Schedule Name 1
  {5c6ce61a-46c8-4e64-8195-df397776b813}, !- Zone Equipment 2
  2,                                      !- Zone Equipment Cooling Sequence 2
  2,                                      !- Zone Equipment Heating or No-Load Sequence 2
  {f910db68-5477-4c60-a7a9-602c4cdb9296}, !- Zone Equipment Sequential Cooling Fraction Schedule Name 2
  {ea06a49b-1723-4193-959b-3a553010b82e}; !- Zone Equipment Sequential Heating Fraction Schedule Name 2

OS:AdditionalProperties,
  {e70a318f-7ae2-49cc-b93d-935f7fb63cf3}, !- Handle
  {470bfe74-9ac3-4e6c-865c-b3448bd16565}, !- Object Name
  ObjectType,                             !- Feature Name 1
  String,                                 !- Feature Data Type 1
  conditioned space;                      !- Feature Value 1

OS:Space,
  {227ed1f1-5e19-485f-b410-e1a41d3d7f34}, !- Handle
  conditioned space 1,                    !- Name
  ,                                       !- Space Type Name
  ,                                       !- Default Construction Set Name
  ,                                       !- Default Schedule Set Name
  ,                                       !- Direction of Relative North {deg}
  ,                                       !- X Origin {m}
  ,                                       !- Y Origin {m}
  ,                                       !- Z Origin {m}
  ,                                       !- Building Story Name
  {470bfe74-9ac3-4e6c-865c-b3448bd16565}, !- Thermal Zone Name
  ,                                       !- Part of Total Floor Area
  ,                                       !- Design Specification Outdoor Air Object Name
  ,                                       !- Building Unit Name
  692.06373070848;                        !- Volume {m3}

OS:Schedule:Ruleset,
  {8a233cd5-8da9-4baa-a333-7e5e149ddf90}, !- Handle
  heating setpoint,                       !- Name
  {e30506ec-47d6-4444-a7bc-675915494538}, !- Schedule Type Limits Name
  {bd7921a4-c758-4491-b90f-1f2f76b35604}; !- Default Day Schedule Name

OS:Schedule:Day,
  {bd7921a4-c758-4491-b90f-1f2f76b35604}, !- Handle
  heating setpoint default day,           !- Name
  {e30506ec-47d6-4444-a7bc-675915494538}, !- Schedule Type Limits Name
  ,                                       !- Interpolate to Timestep
  24,                                     !- Hour 1
  0,                                      !- Minute 1
  0;                                      !- Value Until Time 1

OS:Schedule:Rule,
  {99186771-f185-4f1d-a9d1-e1ef71539167}, !- Handle
  heating setpoint allday rule,           !- Name
  {8a233cd5-8da9-4baa-a333-7e5e149ddf90}, !- Schedule Ruleset Name
  0,                                      !- Rule Order
  {2633d49d-7370-4220-b4d7-ff3f52155acf}, !- Day Schedule Name
  Yes,                                    !- Apply Sunday
  Yes,                                    !- Apply Monday
  Yes,                                    !- Apply Tuesday
  Yes,                                    !- Apply Wednesday
  Yes,                                    !- Apply Thursday
  Yes,                                    !- Apply Friday
  Yes,                                    !- Apply Saturday
  DateRange,                              !- Date Specification Type
  1,                                      !- Start Month
  1,                                      !- Start Day
  12,                                     !- End Month
  31;                                     !- End Day

OS:Schedule:Day,
  {2633d49d-7370-4220-b4d7-ff3f52155acf}, !- Handle
  heating setpoint day,                   !- Name
  {e30506ec-47d6-4444-a7bc-675915494538}, !- Schedule Type Limits Name
  ,                                       !- Interpolate to Timestep
  24,                                     !- Hour 1
  0,                                      !- Minute 1
  20;                                     !- Value Until Time 1

OS:Schedule:Ruleset,
  {ad932037-815c-47f2-aa81-29554b246b26}, !- Handle
  cooling setpoint,                       !- Name
  {e30506ec-47d6-4444-a7bc-675915494538}, !- Schedule Type Limits Name
  {e399c9e1-5f04-40f2-9a45-30a9b2ba633c}; !- Default Day Schedule Name

OS:Schedule:Day,
  {e399c9e1-5f04-40f2-9a45-30a9b2ba633c}, !- Handle
  cooling setpoint default day,           !- Name
  {e30506ec-47d6-4444-a7bc-675915494538}, !- Schedule Type Limits Name
  ,                                       !- Interpolate to Timestep
  24,                                     !- Hour 1
  0,                                      !- Minute 1
  0;                                      !- Value Until Time 1

OS:Schedule:Rule,
  {7106f694-6f86-4ef8-9d95-f938caad2c95}, !- Handle
  cooling setpoint allday rule,           !- Name
  {ad932037-815c-47f2-aa81-29554b246b26}, !- Schedule Ruleset Name
  0,                                      !- Rule Order
  {7b03903b-6a09-41d9-84e0-ce6f2b66cf7d}, !- Day Schedule Name
  Yes,                                    !- Apply Sunday
  Yes,                                    !- Apply Monday
  Yes,                                    !- Apply Tuesday
  Yes,                                    !- Apply Wednesday
  Yes,                                    !- Apply Thursday
  Yes,                                    !- Apply Friday
  Yes,                                    !- Apply Saturday
  DateRange,                              !- Date Specification Type
  1,                                      !- Start Month
  1,                                      !- Start Day
  12,                                     !- End Month
  31;                                     !- End Day

OS:Schedule:Day,
  {7b03903b-6a09-41d9-84e0-ce6f2b66cf7d}, !- Handle
  cooling setpoint day,                   !- Name
  {e30506ec-47d6-4444-a7bc-675915494538}, !- Schedule Type Limits Name
  ,                                       !- Interpolate to Timestep
  24,                                     !- Hour 1
  0,                                      !- Minute 1
  25.5555555555556;                       !- Value Until Time 1

OS:ThermostatSetpoint:DualSetpoint,
  {84a7b8ce-6ce9-446c-b7cf-4e4e76315605}, !- Handle
  conditioned space temperature setpoint, !- Name
  {8a233cd5-8da9-4baa-a333-7e5e149ddf90}, !- Heating Setpoint Temperature Schedule Name
  {ad932037-815c-47f2-aa81-29554b246b26}, !- Cooling Setpoint Temperature Schedule Name
  0;                                      !- Temperature Difference Between Cutout And Setpoint {deltaC}

OS:ScheduleTypeLimits,
  {e30506ec-47d6-4444-a7bc-675915494538}, !- Handle
  Temperature,                            !- Name
  ,                                       !- Lower Limit Value
  ,                                       !- Upper Limit Value
  Continuous,                             !- Numeric Type
  Temperature;                            !- Unit Type

OS:Surface,
  {f78c0fdc-283f-427d-ad8d-8e1471f53441}, !- Handle
  Roof1,                                  !- Name
  RoofCeiling,                            !- Surface Type
  {d224113e-6d8c-4409-b249-a8548ebdfd07}, !- Construction Name
  {019b3086-84dd-4706-8207-88df4e9ae5da}, !- Space Name
  Outdoors,                               !- Outside Boundary Condition
  ,                                       !- Outside Boundary Condition Object
  SunExposed,                             !- Sun Exposure
  WindExposed,                            !- Wind Exposure
  ,                                       !- View Factor to Ground
  ,                                       !- Number of Vertices
  -26.9347048849634, 58.0557891618865, 2.4384, !- X,Y,Z Vertex 1 {m}
  -26.9347048849634, 46.7895631136661, 8.0715130241102, !- X,Y,Z Vertex 2 {m}
  -14.3386812381136, 46.7895631136661, 8.0715130241102, !- X,Y,Z Vertex 3 {m}
  -14.3386812381136, 58.0557891618865, 2.4384; !- X,Y,Z Vertex 4 {m}

OS:AdditionalProperties,
  {d71f568d-948b-4c6d-9516-14d54d20e312}, !- Handle
  {f78c0fdc-283f-427d-ad8d-8e1471f53441}, !- Object Name
  Length,                                 !- Feature Name 1
  Double,                                 !- Feature Data Type 1
  41.325536899113608,                     !- Feature Value 1
  Width,                                  !- Feature Name 2
  Double,                                 !- Feature Data Type 2
  41.325536899113601,                     !- Feature Value 2
  Azimuth,                                !- Feature Name 3
  Integer,                                !- Feature Data Type 3
  0,                                      !- Feature Value 3
  Tilt,                                   !- Feature Name 4
  Double,                                 !- Feature Data Type 4
  0.5,                                    !- Feature Value 4
  SurfaceType,                            !- Feature Name 5
  String,                                 !- Feature Data Type 5
  Roof;                                   !- Feature Value 5

OS:ThermalZone,
  {3af058cb-b610-4956-a407-1440768ce824}, !- Handle
  attic - vented,                         !- Name
  1,                                      !- Multiplier
  ,                                       !- Ceiling Height {m}
  356.389957095237,                       !- Volume {m3}
  ,                                       !- Floor Area {m2}
  ,                                       !- Zone Inside Convection Algorithm
  ,                                       !- Zone Outside Convection Algorithm
  ,                                       !- Zone Conditioning Equipment List Name
  {20ebf9df-a62a-4aca-b0ea-ad468d9ecd2c}, !- Zone Air Inlet Port List
  {1ed369dd-e175-4d36-9c38-922b4671f87a}, !- Zone Air Exhaust Port List
  {c728cced-e851-49b9-91ec-e9630dedc95a}, !- Zone Air Node Name
  {7ccf8fb7-7e47-4f32-851d-b0272dfc8d4b}, !- Zone Return Air Port List
  ,                                       !- Primary Daylighting Control Name
  ,                                       !- Fraction of Zone Controlled by Primary Daylighting Control
  ,                                       !- Secondary Daylighting Control Name
  ,                                       !- Fraction of Zone Controlled by Secondary Daylighting Control
  ,                                       !- Illuminance Map Name
  ,                                       !- Group Rendering Name
  ,                                       !- Thermostat Name
  No;                                     !- Use Ideal Air Loads

OS:Node,
  {c2011a93-4447-4b0d-a6df-67eb9d840df5}, !- Handle
  Node 2,                                 !- Name
  {c728cced-e851-49b9-91ec-e9630dedc95a}, !- Inlet Port
  ;                                       !- Outlet Port

OS:Connection,
  {c728cced-e851-49b9-91ec-e9630dedc95a}, !- Handle
  {3af058cb-b610-4956-a407-1440768ce824}, !- Source Object
  11,                                     !- Outlet Port
  {c2011a93-4447-4b0d-a6df-67eb9d840df5}, !- Target Object
  2;                                      !- Inlet Port

OS:PortList,
  {20ebf9df-a62a-4aca-b0ea-ad468d9ecd2c}, !- Handle
  {3af058cb-b610-4956-a407-1440768ce824}; !- HVAC Component

OS:PortList,
  {1ed369dd-e175-4d36-9c38-922b4671f87a}, !- Handle
  {3af058cb-b610-4956-a407-1440768ce824}; !- HVAC Component

OS:PortList,
  {7ccf8fb7-7e47-4f32-851d-b0272dfc8d4b}, !- Handle
  {3af058cb-b610-4956-a407-1440768ce824}; !- HVAC Component

OS:Sizing:Zone,
  {981b019e-d895-437b-8c3f-e04d2b319850}, !- Handle
  {3af058cb-b610-4956-a407-1440768ce824}, !- Zone or ZoneList Name
  SupplyAirTemperature,                   !- Zone Cooling Design Supply Air Temperature Input Method
  14,                                     !- Zone Cooling Design Supply Air Temperature {C}
  11.11,                                  !- Zone Cooling Design Supply Air Temperature Difference {deltaC}
  SupplyAirTemperature,                   !- Zone Heating Design Supply Air Temperature Input Method
  40,                                     !- Zone Heating Design Supply Air Temperature {C}
  11.11,                                  !- Zone Heating Design Supply Air Temperature Difference {deltaC}
  0.0085,                                 !- Zone Cooling Design Supply Air Humidity Ratio {kg-H2O/kg-air}
  0.008,                                  !- Zone Heating Design Supply Air Humidity Ratio {kg-H2O/kg-air}
  ,                                       !- Zone Heating Sizing Factor
  ,                                       !- Zone Cooling Sizing Factor
  DesignDay,                              !- Cooling Design Air Flow Method
  ,                                       !- Cooling Design Air Flow Rate {m3/s}
  ,                                       !- Cooling Minimum Air Flow per Zone Floor Area {m3/s-m2}
  ,                                       !- Cooling Minimum Air Flow {m3/s}
  ,                                       !- Cooling Minimum Air Flow Fraction
  DesignDay,                              !- Heating Design Air Flow Method
  ,                                       !- Heating Design Air Flow Rate {m3/s}
  ,                                       !- Heating Maximum Air Flow per Zone Floor Area {m3/s-m2}
  ,                                       !- Heating Maximum Air Flow {m3/s}
  ,                                       !- Heating Maximum Air Flow Fraction
  No,                                     !- Account for Dedicated Outdoor Air System
  NeutralSupplyAir,                       !- Dedicated Outdoor Air System Control Strategy
  autosize,                               !- Dedicated Outdoor Air Low Setpoint Temperature for Design {C}
  autosize,                               !- Dedicated Outdoor Air High Setpoint Temperature for Design {C}
  Sensible Load Only No Latent Load,      !- Zone Load Sizing Method
  HumidityRatioDifference,                !- Zone Latent Cooling Design Supply Air Humidity Ratio Input Method
  ,                                       !- Zone Dehumidification Design Supply Air Humidity Ratio {kgWater/kgDryAir}
  0.005,                                  !- Zone Cooling Design Supply Air Humidity Ratio Difference {kgWater/kgDryAir}
  HumidityRatioDifference,                !- Zone Latent Heating Design Supply Air Humidity Ratio Input Method
  ,                                       !- Zone Humidification Design Supply Air Humidity Ratio {kgWater/kgDryAir}
  0.005,                                  !- Zone Humidification Design Supply Air Humidity Ratio Difference {kgWater/kgDryAir}
  ,                                       !- Zone Humidistat Dehumidification Set Point Schedule Name
  ,                                       !- Zone Humidistat Humidification Set Point Schedule Name
  ,                                       !- Design Zone Air Distribution Effectiveness in Cooling Mode
  ,                                       !- Design Zone Air Distribution Effectiveness in Heating Mode
  ,                                       !- Design Zone Secondary Recirculation Fraction {dimensionless}
  ,                                       !- Design Minimum Zone Ventilation Efficiency {dimensionless}
  Coincident;                             !- Sizing Option

OS:ZoneHVAC:EquipmentList,
  {311a2aa7-b134-434d-9292-6ada48b89d1e}, !- Handle
  Zone HVAC Equipment List 2,             !- Name
  {3af058cb-b610-4956-a407-1440768ce824}; !- Thermal Zone

OS:AdditionalProperties,
  {b2693a1d-f648-4607-9e96-5399269206d7}, !- Handle
  {3af058cb-b610-4956-a407-1440768ce824}, !- Object Name
  ObjectType,                             !- Feature Name 1
  String,                                 !- Feature Data Type 1
  attic - vented;                         !- Feature Value 1

OS:Space,
  {019b3086-84dd-4706-8207-88df4e9ae5da}, !- Handle
  attic - vented 1,                       !- Name
  ,                                       !- Space Type Name
  ,                                       !- Default Construction Set Name
  ,                                       !- Default Schedule Set Name
  ,                                       !- Direction of Relative North {deg}
  ,                                       !- X Origin {m}
  ,                                       !- Y Origin {m}
  ,                                       !- Z Origin {m}
  ,                                       !- Building Story Name
  {3af058cb-b610-4956-a407-1440768ce824}, !- Thermal Zone Name
  ,                                       !- Part of Total Floor Area
  ,                                       !- Design Specification Outdoor Air Object Name
  ,                                       !- Building Unit Name
  356.389957095237;                       !- Volume {m3}

OS:Material,
  {07b831dc-da22-4bcb-9b06-54d2cdb1e0d5}, !- Handle
  asphalt or fiberglass shingles,         !- Name