
OS:Version,
  {208afc65-7f72-42e9-b0fa-3f872ca39075}, !- Handle
  3.10.0;                                 !- Version Identifier

OS:SimulationControl,
  {7defbcf1-d769-4fee-bc1f-9f6fd296c687}, !- Handle
  ,                                       !- Do Zone Sizing Calculation
  ,                                       !- Do System Sizing Calculation
  ,                                       !- Do Plant Sizing Calculation
  No;                                     !- Run Simulation for Sizing Periods

OS:Timestep,
  {48bb78cc-6940-44df-bc38-4c9aa2dd1803}, !- Handle
  1;                                      !- Number of Timesteps per Hour

OS:ShadowCalculation,
  {3c83ca7a-a079-4574-9e81-6f93e326126f}, !- Handle
  PolygonClipping,                        !- Shading Calculation Method
  ,                                       !- Shading Calculation Update Frequency Method
  20,                                     !- Shading Calculation Update Frequency
  200,                                    !- Maximum Figures in Shadow Overlap Calculations
  ,                                       !- Polygon Clipping Algorithm
  512,                                    !- Pixel Counting Resolution
  ,                                       !- Sky Diffuse Modeling Algorithm
  No,                                     !- Output External Shading Calculation Results
  No,                                     !- Disable Self-Shading Within Shading Zone Groups
  No;                                     !- Disable Self-Shading From Shading Zone Groups to Other Zones

OS:SurfaceConvectionAlgorithm:Outside,
  {78ee19c4-954e-4082-85ff-cc551f158434}, !- Handle
  DOE-2;                                  !- Algorithm

OS:SurfaceConvectionAlgorithm:Inside,
  {99826ad9-3a54-4b9c-91d5-f472fe0cf0cc}, !- Handle
  TARP;                                   !- Algorithm

OS:ZoneCapacitanceMultiplier:ResearchSpecial,
  {95ada0bb-3f87-4694-87f2-cf4229258321}, !- Handle
  7,                                      !- Temperature Capacity Multiplier
  15,                                     !- Humidity Capacity Multiplier
  ;                                       !- Carbon Dioxide Capacity Multiplier

OS:ConvergenceLimits,
  {84241013-1131-4d03-96a0-7b1eed536aac}, !- Handle
  0;                                      !- Minimum System Timestep {minutes}

OS:RunPeriod,
  {55f968ae-77df-4777-a846-44364cb95c7b}, !- Handle
  Run Period 1,                           !- Name
  1,                                      !- Begin Month
  1,                                      !- Begin Day of Month
  12,                                     !- End Month
  31,                                     !- End Day of Month
  ,                                       !- Use Weather File Holidays and Special Days
  ,                                       !- Use Weather File Daylight Saving Period
  ,                                       !- Apply Weekend Holiday Rule
  ,                                       !- Use Weather File Rain Indicators
  ,                                       !- Use Weather File Snow Indicators
  ;                                       !- Number of Times Runperiod to be Repeated

OS:PerformancePrecisionTradeoffs,
  {600b6683-d547-40d3-9d82-15fe80c30c6a}, !- Handle
  ,                                       !- Use Coil Direct Solutions
  CarrollMRT;                             !- Zone Radiant Exchange Algorithm

OS:WeatherFile,
  {f61f8a3b-102c-458c-b637-9b28871a163a}, !- Handle
  Buffalo Niagara Intl Ap,                !- City
  NY,                                     !- State Province Region
  USA,                                    !- Country
  TMY3,                                   !- Data Source
  725280,                                 !- WMO Number
  42.93,                                  !- Latitude {deg}
  -78.73,                                 !- Longitude {deg}
  -5,                                     !- Time Zone {hr}
  215,                                    !- Elevation {m}
  /Users/nmoore/github/urbanopt-example-geojson-project/example_project/weather/USA_NY_Buffalo-Greater.Buffalo.Intl.AP.725280_TMY3.epw, !- Url
  6B50E0FF,                               !- Checksum
  ,                                       !- Start Date Actual Year
  Sunday;                                 !- Start Day of Week

OS:YearDescription,
  {032a3629-951f-4557-bc58-2ec4ed3ff74a}, !- Handle
  2007,                                   !- Calendar Year
  ,                                       !- Day of Week for Start Day
  ;                                       !- Is Leap Year

OS:Site,
  {abbf4b9e-0424-40f9-9490-d13318dc6b4c}, !- Handle
  Buffalo Niagara Intl Ap_NY,             !- Name
  42.93,                                  !- Latitude {deg}
  -78.73,                                 !- Longitude {deg}
  -5,                                     !- Time Zone {hr}
  215,                                    !- Elevation {m}
  Suburbs,                                !- Terrain
  Yes;                                    !- Keep Site Location Information

OS:RunPeriodControl:DaylightSavingTime,
  {4dfc946b-ea19-4b1b-bbb9-82ee216d62b6}, !- Handle
  Mar 12,                                 !- Start Date
  Nov 5;                                  !- End Date

OS:Site:GroundTemperature:Shallow,
  {d7eb81d3-0ade-41df-a852-ded07bd74600}, !- Handle
  4.30207395723828,                       !- January Surface Ground Temperature {C}
  2.29327249652502,                       !- February Surface Ground Temperature {C}
  2.13240047156047,                       !- March Surface Ground Temperature {C}
  3.08567940719286,                       !- April Surface Ground Temperature {C}
  6.91256312497526,                       !- May Surface Ground Temperature {C}
  10.7216195949507,                       !- June Surface Ground Temperature {C}
  14.0238679822574,                       !- July Surface Ground Temperature {C}
  16.1157611184724,                       !- August Surface Ground Temperature {C}
  16.2934789303462,                       !- September Surface Ground Temperature {C}
  14.5920754632847,                       !- October Surface Ground Temperature {C}
  11.374036348653,                        !- November Surface Ground Temperature {C}
  7.68182621661674;                       !- December Surface Ground Temperature {C}

OS:ThermalZone,
  {0de28c19-f74d-46e2-add1-d462a21f6d4d}, !- Handle
  conditioned space,                      !- Name
  1,                                      !- Multiplier
  ,                                       !- Ceiling Height {m}
  692.06373070848,                        !- Volume {m3}
  ,                                       !- Floor Area {m2}
  ,                                       !- Zone Inside Convection Algorithm
  ,                                       !- Zone Outside Convection Algorithm
  ,                                       !- Zone Conditioning Equipment List Name
  {f29bcbe7-552b-48d2-a6c4-120c94e10615}, !- Zone Air Inlet Port List
  {b02b6273-0d53-4262-be39-1b0c9540710c}, !- Zone Air Exhaust Port List
  {0d532b8b-f3f1-400c-ac17-10c328a5dfb2}, !- Zone Air Node Name
  {470d422e-b63f-414e-a479-391ca3d2a1f8}, !- Zone Return Air Port List
  ,                                       !- Primary Daylighting Control Name
  ,                                       !- Fraction of Zone Controlled by Primary Daylighting Control
  ,                                       !- Secondary Daylighting Control Name
  ,                                       !- Fraction of Zone Controlled by Secondary Daylighting Control
  ,                                       !- Illuminance Map Name
  ,                                       !- Group Rendering Name
  {6d4766df-726b-4178-ad7c-432b152ee763}, !- Thermostat Name
  No;                                     !- Use Ideal Air Loads

OS:Node,
  {c2ebe0fa-b4f3-47b1-988a-72e96acfd63c}, !- Handle
  Node 1,                                 !- Name
  {0d532b8b-f3f1-400c-ac17-10c328a5dfb2}, !- Inlet Port
  ;                                       !- Outlet Port

OS:Connection,
  {0d532b8b-f3f1-400c-ac17-10c328a5dfb2}, !- Handle
  {0de28c19-f74d-46e2-add1-d462a21f6d4d}, !- Source Object
  11,                                     !- Outlet Port
  {c2ebe0fa-b4f3-47b1-988a-72e96acfd63c}, !- Target Object
  2;                                      !- Inlet Port

OS:PortList,
  {f29bcbe7-552b-48d2-a6c4-120c94e10615}, !- Handle
  {0de28c19-f74d-46e2-add1-d462a21f6d4d}, !- HVAC Component
  {725e4076-652c-4172-9428-2bd90bdd61c3}; !- Port 1

OS:PortList,
  {b02b6273-0d53-4262-be39-1b0c9540710c}, !- Handle
  {0de28c19-f74d-46e2-add1-d462a21f6d4d}; !- HVAC Component

OS:PortList,
  {470d422e-b63f-414e-a479-391ca3d2a1f8}, !- Handle
  {0de28c19-f74d-46e2-add1-d462a21f6d4d}, !- HVAC Component
  {1214e696-2c7f-4ef4-a2a4-463d33bc400b}; !- Port 1

OS:Sizing:Zone,
  {3877ae0a-8f01-4be5-bf09-b58c59a18580}, !- Handle
  {0de28c19-f74d-46e2-add1-d462a21f6d4d}, !- Zone or ZoneList Name
  SupplyAirTemperature,                   !- Zone Cooling Design Supply Air Temperature Input Method
  14,                                     !- Zone Cooling Design Supply Air Temperature {C}
  11.11,                                  !- Zone Cooling Design Supply Air Temperature Difference {deltaC}
  SupplyAirTemperature,                   !- Zone Heating Design Supply Air Temperature Input Method
  40,                                     !- Zone Heating Design Supply Air Temperature {C}
  11.11,                                  !- Zone Heating Design Supply Air Temperature Difference {deltaC}
  0.0085,                                 !- Zone Cooling Design Supply Air Humidity Ratio {kg-H2O/kg-air}
  0.008,                                  !- Zone Heating Design Supply Air Humidity Ratio {kg-H2O/kg-air}
  ,                                       !- Zone Heating Sizing Factor
  ,                                       !- Zone Cooling Sizing Factor
  DesignDay,                              !- Cooling Design Air Flow Method
  ,                                       !- Cooling Design Air Flow Rate {m3/s}
  ,                                       !- Cooling Minimum Air Flow per Zone Floor Area {m3/s-m2}
  ,                                       !- Cooling Minimum Air Flow {m3/s}
  ,                                       !- Cooling Minimum Air Flow Fraction
  DesignDay,                              !- Heating Design Air Flow Method
  ,                                       !- Heating Design Air Flow Rate {m3/s}
  ,                                       !- Heating Maximum Air Flow per Zone Floor Area {m3/s-m2}
  ,                                       !- Heating Maximum Air Flow {m3/s}
  ,                                       !- Heating Maximum Air Flow Fraction
  No,                                     !- Account for Dedicated Outdoor Air System
  NeutralSupplyAir,                       !- Dedicated Outdoor Air System Control Strategy
  autosize,                               !- Dedicated Outdoor Air Low Setpoint Temperature for Design {C}
  autosize,                               !- Dedicated Outdoor Air High Setpoint Temperature for Design {C}
  Sensible Load Only No Latent Load,      !- Zone Load Sizing Method
  HumidityRatioDifference,                !- Zone Latent Cooling Design Supply Air Humidity Ratio Input Method
  ,                                       !- Zone Dehumidification Design Supply Air Humidity Ratio {kgWater/kgDryAir}
  0.005,                                  !- Zone Cooling Design Supply Air Humidity Ratio Difference {kgWater/kgDryAir}
  HumidityRatioDifference,                !- Zone Latent Heating Design Supply Air Humidity Ratio Input Method
  ,                                       !- Zone Humidification Design Supply Air Humidity Ratio {kgWater/kgDryAir}
  0.005,                                  !- Zone Humidification Design Supply Air Humidity Ratio Difference {kgWater/kgDryAir}
  ,                                       !- Zone Humidistat Dehumidification Set Point Schedule Name
  ,                                       !- Zone Humidistat Humidification Set Point Schedule Name
  ,                                       !- Design Zone Air Distribution Effectiveness in Cooling Mode
  ,                                       !- Design Zone Air Distribution Effectiveness in Heating Mode
  ,                                       !- Design Zone Secondary Recirculation Fraction {dimensionless}
  ,                                       !- Design Minimum Zone Ventilation Efficiency {dimensionless}
  Coincident;                             !- Sizing Option

OS:ZoneHVAC:EquipmentList,
  {ababb9b6-04dd-4026-870c-b08844cd44c4}, !- Handle
  Zone HVAC Equipment List 1,             !- Name
  {0de28c19-f74d-46e2-add1-d462a21f6d4d}, !- Thermal Zone
  ,                                       !- Load Distribution Scheme
  {df9e36b0-bf63-4db4-844c-a2f1b82ac98d}, !- Zone Equipment 1
  1,                                      !- Zone Equipment Cooling Sequence 1
  1,                                      !- Zone Equipment Heating or No-Load Sequence 1
  {31787fd1-415a-4831-bb47-c11449362554}, !- Zone Equipment Sequential Cooling Fraction Schedule Name 1
  {e78e7f33-3289-40db-8665-b336f982d19d}; !- Zone Equipment Sequential Heating Fraction Schedule Name 1

OS:AdditionalProperties,
  {78ccf0c5-63de-4195-8281-dbce9fc2a024}, !- Handle
  {0de28c19-f74d-46e2-add1-d462a21f6d4d}, !- Object Name
  ObjectType,                             !- Feature Name 1
  String,                                 !- Feature Data Type 1
  conditioned space;                      !- Feature Value 1

OS:Space,
  {de9f4018-5e67-45f5-a25d-862c2bbf2f75}, !- Handle
  conditioned space 1,                    !- Name
  ,                                       !- Space Type Name
  ,                                       !- Default Construction Set Name
  ,                                       !- Default Schedule Set Name
  ,                                       !- Direction of Relative North {deg}
  ,                                       !- X Origin {m}
  ,                                       !- Y Origin {m}
  ,                                       !- Z Origin {m}
  ,                                       !- Building Story Name
  {0de28c19-f74d-46e2-add1-d462a21f6d4d}, !- Thermal Zone Name
  ,                                       !- Part of Total Floor Area
  ,                                       !- Design Specification Outdoor Air Object Name
  ,                                       !- Building Unit Name
  692.06373070848;                        !- Volume {m3}

OS:Schedule:Ruleset,
  {657c544d-5be6-4767-82c6-1b50fdf0701f}, !- Handle
  heating setpoint,                       !- Name
  {a5ed1688-9f96-4f54-ae6f-02cffe426af2}, !- Schedule Type Limits Name
  {a5b266a8-4cfa-42ff-bed9-a83eb5ccad37}; !- Default Day Schedule Name

OS:Schedule:Day,
  {a5b266a8-4cfa-42ff-bed9-a83eb5ccad37}, !- Handle
  heating setpoint default day,           !- Name
  {a5ed1688-9f96-4f54-ae6f-02cffe426af2}, !- Schedule Type Limits Name
  ,                                       !- Interpolate to Timestep
  24,                                     !- Hour 1
  0,                                      !- Minute 1
  0;                                      !- Value Until Time 1

OS:Schedule:Rule,
  {6d6c7ef8-80c5-4de4-b9fb-df824d0956a6}, !- Handle
  heating setpoint allday rule,           !- Name
  {657c544d-5be6-4767-82c6-1b50fdf0701f}, !- Schedule Ruleset Name
  0,                                      !- Rule Order
  {d1ac4e55-5d27-4bac-aee1-091641b4bea0}, !- Day Schedule Name
  Yes,                                    !- Apply Sunday
  Yes,                                    !- Apply Monday
  Yes,                                    !- Apply Tuesday
  Yes,                                    !- Apply Wednesday
  Yes,                                    !- Apply Thursday
  Yes,                                    !- Apply Friday
  Yes,                                    !- Apply Saturday
  DateRange,                              !- Date Specification Type
  1,                                      !- Start Month
  1,                                      !- Start Day
  12,                                     !- End Month
  31;                                     !- End Day

OS:Schedule:Day,
  {d1ac4e55-5d27-4bac-aee1-091641b4bea0}, !- Handle
  heating setpoint day,                   !- Name
  {a5ed1688-9f96-4f54-ae6f-02cffe426af2}, !- Schedule Type Limits Name
  ,                                       !- Interpolate to Timestep
  24,                                     !- Hour 1
  0,                                      !- Minute 1
  20;                                     !- Value Until Time 1

OS:Schedule:Ruleset,
  {b97ad0ec-5b18-4e64-8da4-8ecb82997560}, !- Handle
  cooling setpoint,                       !- Name
  {a5ed1688-9f96-4f54-ae6f-02cffe426af2}, !- Schedule Type Limits Name
  {3ed6c9bf-5563-4421-aef6-df2e14d56860}; !- Default Day Schedule Name

OS:Schedule:Day,
  {3ed6c9bf-5563-4421-aef6-df2e14d56860}, !- Handle
  cooling setpoint default day,           !- Name
  {a5ed1688-9f96-4f54-ae6f-02cffe426af2}, !- Schedule Type Limits Name
  ,                                       !- Interpolate to Timestep
  24,                                     !- Hour 1
  0,                                      !- Minute 1
  0;                                      !- Value Until Time 1

OS:Schedule:Rule,
  {e7331aae-0c8a-4a41-8487-46e6c45505bf}, !- Handle
  cooling setpoint allday rule,           !- Name
  {b97ad0ec-5b18-4e64-8da4-8ecb82997560}, !- Schedule Ruleset Name
  0,                                      !- Rule Order
  {04804e08-1447-45e8-b4f0-fd5f74ae119b}, !- Day Schedule Name
  Yes,                                    !- Apply Sunday
  Yes,                                    !- Apply Monday
  Yes,                                    !- Apply Tuesday
  Yes,                                    !- Apply Wednesday
  Yes,                                    !- Apply Thursday
  Yes,                                    !- Apply Friday
  Yes,                                    !- Apply Saturday
  DateRange,                              !- Date Specification Type
  1,                                      !- Start Month
  1,                                      !- Start Day
  12,                                     !- End Month
  31;                                     !- End Day

OS:Schedule:Day,
  {04804e08-1447-45e8-b4f0-fd5f74ae119b}, !- Handle
  cooling setpoint day,                   !- Name
  {a5ed1688-9f96-4f54-ae6f-02cffe426af2}, !- Schedule Type Limits Name
  ,                                       !- Interpolate to Timestep
  24,                                     !- Hour 1
  0,                                      !- Minute 1
  25.5555555555556;                       !- Value Until Time 1

OS:ThermostatSetpoint:DualSetpoint,
  {6d4766df-726b-4178-ad7c-432b152ee763}, !- Handle
  conditioned space temperature setpoint, !- Name
  {657c544d-5be6-4767-82c6-1b50fdf0701f}, !- Heating Setpoint Temperature Schedule Name
  {b97ad0ec-5b18-4e64-8da4-8ecb82997560}, !- Cooling Setpoint Temperature Schedule Name
  0;                                      !- Temperature Difference Between Cutout And Setpoint {deltaC}

OS:ScheduleTypeLimits,
  {a5ed1688-9f96-4f54-ae6f-02cffe426af2}, !- Handle
  Temperature,                            !- Name
  ,                                       !- Lower Limit Value
  ,                                       !- Upper Limit Value
  Continuous,                             !- Numeric Type
  Temperature;                            !- Unit Type

OS:Surface,
  {87bdfe80-2d21-49db-b2fd-dbcae4779cf2}, !- Handle
  Roof1,                                  !- Name
  RoofCeiling,                            !- Surface Type
  {fca226e4-9495-459f-8e1f-f56b175a94eb}, !- Construction Name
  {1d1821f5-a02b-45eb-8aca-552d8e2f7dc8}, !- Space Name
  Outdoors,                               !- Outside Boundary Condition
  ,                                       !- Outside Boundary Condition Object
  SunExposed,                             !- Sun Exposure
  WindExposed,                            !- Wind Exposure
  ,                                       !- View Factor to Ground
  ,                                       !- Number of Vertices
  -26.9347048849634, 58.0557891618865, 2.4384, !- X,Y,Z Vertex 1 {m}
  -26.9347048849634, 46.7895631136661, 8.0715130241102, !- X,Y,Z Vertex 2 {m}
  -14.3386812381136, 46.7895631136661, 8.0715130241102, !- X,Y,Z Vertex 3 {m}
  -14.3386812381136, 58.0557891618865, 2.4384; !- X,Y,Z Vertex 4 {m}

OS:AdditionalProperties,
  {e7e48049-4235-4aa9-bb53-e8e5305b3a40}, !- Handle
  {87bdfe80-2d21-49db-b2fd-dbcae4779cf2}, !- Object Name
  Length,                                 !- Feature Name 1
  Double,                                 !- Feature Data Type 1
  41.325536899113608,                     !- Feature Value 1
  Width,                                  !- Feature Name 2
  Double,                                 !- Feature Data Type 2
  41.325536899113601,                     !- Feature Value 2
  Azimuth,                                !- Feature Name 3
  Integer,                                !- Feature Data Type 3
  0,                                      !- Feature Value 3
  Tilt,                                   !- Feature Name 4
  Double,                                 !- Feature Data Type 4
  0.5,                                    !- Feature Value 4
  SurfaceType,                            !- Feature Name 5
  String,                                 !- Feature Data Type 5
  Roof;                                   !- Feature Value 5

OS:ThermalZone,
  {9805b4c2-27a7-4ee7-b0d1-6fba2b38b8d6}, !- Handle
  attic - vented,                         !- Name
  1,                                      !- Multiplier
  ,                                       !- Ceiling Height {m}
  356.390921899745,                       !- Volume {m3}
  ,                                       !- Floor Area {m2}
  ,                                       !- Zone Inside Convection Algorithm
  ,                                       !- Zone Outside Convection Algorithm
  ,                                       !- Zone Conditioning Equipment List Name
  {e8209c06-ab87-4c63-9800-bebb36f4a879}, !- Zone Air Inlet Port List
  {4b2c4d92-5d7b-42aa-93f6-4df9e7596889}, !- Zone Air Exhaust Port List
  {7e42882e-4411-4d30-a772-260b61099bbd}, !- Zone Air Node Name
  {c11aa088-1cbe-44ad-ab28-82a0173d32eb}, !- Zone Return Air Port List
  ,                                       !- Primary Daylighting Control Name
  ,                                       !- Fraction of Zone Controlled by Primary Daylighting Control
  ,                                       !- Secondary Daylighting Control Name
  ,                                       !- Fraction of Zone Controlled by Secondary Daylighting Control
  ,                                       !- Illuminance Map Name
  ,                                       !- Group Rendering Name
  ,                                       !- Thermostat Name
  No;                                     !- Use Ideal Air Loads

OS:Node,
  {8f3c7214-e15f-4f0c-a023-2371a3dcee67}, !- Handle
  Node 2,                                 !- Name
  {7e42882e-4411-4d30-a772-260b61099bbd}, !- Inlet Port
  ;                                       !- Outlet Port

OS:Connection,
  {7e42882e-4411-4d30-a772-260b61099bbd}, !- Handle
  {9805b4c2-27a7-4ee7-b0d1-6fba2b38b8d6}, !- Source Object
  11,                                     !- Outlet Port
  {8f3c7214-e15f-4f0c-a023-2371a3dcee67}, !- Target Object
  2;                                      !- Inlet Port

OS:PortList,
  {e8209c06-ab87-4c63-9800-bebb36f4a879}, !- Handle
  {9805b4c2-27a7-4ee7-b0d1-6fba2b38b8d6}; !- HVAC Component

OS:PortList,
  {4b2c4d92-5d7b-42aa-93f6-4df9e7596889}, !- Handle
  {9805b4c2-27a7-4ee7-b0d1-6fba2b38b8d6}; !- HVAC Component

OS:PortList,
  {c11aa088-1cbe-44ad-ab28-82a0173d32eb}, !- Handle
  {9805b4c2-27a7-4ee7-b0d1-6fba2b38b8d6}; !- HVAC Component

OS:Sizing:Zone,
  {02426a17-83a3-4a64-a309-931fcadb5903}, !- Handle
  {9805b4c2-27a7-4ee7-b0d1-6fba2b38b8d6}, !- Zone or ZoneList Name
  SupplyAirTemperature,                   !- Zone Cooling Design Supply Air Temperature Input Method
  14,                                     !- Zone Cooling Design Supply Air Temperature {C}
  11.11,                                  !- Zone Cooling Design Supply Air Temperature Difference {deltaC}
  SupplyAirTemperature,                   !- Zone Heating Design Supply Air Temperature Input Method
  40,                                     !- Zone Heating Design Supply Air Temperature {C}
  11.11,                                  !- Zone Heating Design Supply Air Temperature Difference {deltaC}
  0.0085,                                 !- Zone Cooling Design Supply Air Humidity Ratio {kg-H2O/kg-air}
  0.008,                                  !- Zone Heating Design Supply Air Humidity Ratio {kg-H2O/kg-air}
  ,                                       !- Zone Heating Sizing Factor
  ,                                       !- Zone Cooling Sizing Factor
  DesignDay,                              !- Cooling Design Air Flow Method
  ,                                       !- Cooling Design Air Flow Rate {m3/s}
  ,                                       !- Cooling Minimum Air Flow per Zone Floor Area {m3/s-m2}
  ,                                       !- Cooling Minimum Air Flow {m3/s}
  ,                                       !- Cooling Minimum Air Flow Fraction
  DesignDay,                              !- Heating Design Air Flow Method
  ,                                       !- Heating Design Air Flow Rate {m3/s}
  ,                                       !- Heating Maximum Air Flow per Zone Floor Area {m3/s-m2}
  ,                                       !- Heating Maximum Air Flow {m3/s}
  ,                                       !- Heating Maximum Air Flow Fraction
  No,                                     !- Account for Dedicated Outdoor Air System
  NeutralSupplyAir,                       !- Dedicated Outdoor Air System Control Strategy
  autosize,                               !- Dedicated Outdoor Air Low Setpoint Temperature for Design {C}
  autosize,                               !- Dedicated Outdoor Air High Setpoint Temperature for Design {C}
  Sensible Load Only No Latent Load,      !- Zone Load Sizing Method
  HumidityRatioDifference,                !- Zone Latent Cooling Design Supply Air Humidity Ratio Input Method
  ,                                       !- Zone Dehumidification Design Supply Air Humidity Ratio {kgWater/kgDryAir}
  0.005,                                  !- Zone Cooling Design Supply Air Humidity Ratio Difference {kgWater/kgDryAir}
  HumidityRatioDifference,                !- Zone Latent Heating Design Supply Air Humidity Ratio Input Method
  ,                                       !- Zone Humidification Design Supply Air Humidity Ratio {kgWater/kgDryAir}
  0.005,                                  !- Zone Humidification Design Supply Air Humidity Ratio Difference {kgWater/kgDryAir}
  ,                                       !- Zone Humidistat Dehumidification Set Point Schedule Name
  ,                                       !- Zone Humidistat Humidification Set Point Schedule Name
  ,                                       !- Design Zone Air Distribution Effectiveness in Cooling Mode
  ,                                       !- Design Zone Air Distribution Effectiveness in Heating Mode
  ,                                       !- Design Zone Secondary Recirculation Fraction {dimensionless}
  ,                                       !- Design Minimum Zone Ventilation Efficiency {dimensionless}
  Coincident;                             !- Sizing Option

OS:ZoneHVAC:EquipmentList,
  {5d94a6c4-300b-4238-91d4-d0c64b06bae1}, !- Handle
  Zone HVAC Equipment List 2,             !- Name
  {9805b4c2-27a7-4ee7-b0d1-6fba2b38b8d6}; !- Thermal Zone

OS:AdditionalProperties,
  {4eea041b-6435-46bd-85b0-6617ac445b5d}, !- Handle
  {9805b4c2-27a7-4ee7-b0d1-6fba2b38b8d6}, !- Object Name
  ObjectType,                             !- Feature Name 1
  String,                                 !- Feature Data Type 1
  attic - vented;                         !- Feature Value 1

OS:Space,
  {1d1821f5-a02b-45eb-8aca-552d8e2f7dc8}, !- Handle
  attic - vented 1,                       !- Name
  ,                                       !- Space Type Name
  ,                                       !- Default Construction Set Name
  ,                                       !- Default Schedule Set Name
  ,                                       !- Direction of Relative North {deg}
  ,                                       !- X Origin {m}
  ,                                       !- Y Origin {m}
  ,                                       !- Z Origin {m}
  ,                                       !- Building Story Name
  {9805b4c2-27a7-4ee7-b0d1-6fba2b38b8d6}, !- Thermal Zone Name
  ,                                       !- Part of Total Floor Area
  ,                                       !- Design Specification Outdoor Air Object Name
  ,                                       !- Building Unit Name
  356.390921899745;                       !- Volume {m3}

OS:Material,
  {c6d8d093-7894-48cc-aa57-85c2f8ef9019}, !- Handle
  asphalt or fiberglass shingles,         !- Name
  Rough,                                  !- Roughness
  0.00635,                                !- Thickness {m}
  0.162714,                               !- Conductivity {W/m-K}
  1121.4,                                 !- Density {kg/m3}
  1465.45,                                !- Specific Heat {J/kg-K}
  0.9,                                    !- Thermal Absorptance
  0.85,                                   !- Solar Absorptance