
OS:Version,
  {96fb0412-2965-4532-99d7-baaa5dafe7de}, !- Handle
  3.9.0;                                  !- Version Identifier

OS:SimulationControl,
  {96823b1c-b313-4ddd-b715-e243573f6708}, !- Handle
  ,                                       !- Do Zone Sizing Calculation
  ,                                       !- Do System Sizing Calculation
  ,                                       !- Do Plant Sizing Calculation
  No;                                     !- Run Simulation for Sizing Periods

OS:Timestep,
  {7903002d-6cf7-4240-b939-8f01e1bfff3e}, !- Handle
  1;                                      !- Number of Timesteps per Hour

OS:ShadowCalculation,
  {ba4ef97f-2992-4b0d-8781-71f5fc5149d3}, !- Handle
  PolygonClipping,                        !- Shading Calculation Method
  ,                                       !- Shading Calculation Update Frequency Method
  20,                                     !- Shading Calculation Update Frequency
  200,                                    !- Maximum Figures in Shadow Overlap Calculations
  ,                                       !- Polygon Clipping Algorithm
  512,                                    !- Pixel Counting Resolution
  ,                                       !- Sky Diffuse Modeling Algorithm
  No,                                     !- Output External Shading Calculation Results
  No,                                     !- Disable Self-Shading Within Shading Zone Groups
  No;                                     !- Disable Self-Shading From Shading Zone Groups to Other Zones

OS:SurfaceConvectionAlgorithm:Outside,
  {6c9cd7de-6672-45a3-9518-e62b78be55d6}, !- Handle
  DOE-2;                                  !- Algorithm

OS:SurfaceConvectionAlgorithm:Inside,
  {4e33886b-c0d6-4c0f-9e47-95dc4e4da9d1}, !- Handle
  TARP;                                   !- Algorithm

OS:ZoneCapacitanceMultiplier:ResearchSpecial,
  {323e3eae-d9f5-4d45-af07-f52683c3d18d}, !- Handle
  7,                                      !- Temperature Capacity Multiplier
  15,                                     !- Humidity Capacity Multiplier
  ;                                       !- Carbon Dioxide Capacity Multiplier

OS:ConvergenceLimits,
  {14bcebb4-c335-42fb-a906-5e3153523604}, !- Handle
  0;                                      !- Minimum System Timestep {minutes}

OS:RunPeriod,
  {4f428aae-c1a5-4282-9d10-624771ab2231}, !- Handle
  Run Period 1,                           !- Name
  1,                                      !- Begin Month
  1,                                      !- Begin Day of Month
  12,                                     !- End Month
  31,                                     !- End Day of Month
  ,                                       !- Use Weather File Holidays and Special Days
  ,                                       !- Use Weather File Daylight Saving Period
  ,                                       !- Apply Weekend Holiday Rule
  ,                                       !- Use Weather File Rain Indicators
  ,                                       !- Use Weather File Snow Indicators
  ;                                       !- Number of Times Runperiod to be Repeated

OS:PerformancePrecisionTradeoffs,
  {29a1362f-d4c2-4eac-b9cc-55d53321a7af}, !- Handle
  ,                                       !- Use Coil Direct Solutions
  CarrollMRT;                             !- Zone Radiant Exchange Algorithm

OS:WeatherFile,
  {010fea88-c6c6-4877-a4da-9b3c6fc4c2f9}, !- Handle
  Buffalo Niagara Intl Ap,                !- City
  NY,                                     !- State Province Region
  USA,                                    !- Country
  TMY3,                                   !- Data Source
  725280,                                 !- WMO Number
  42.93,                                  !- Latitude {deg}
  -78.73,                                 !- Longitude {deg}
  -5,                                     !- Time Zone {hr}
  215,                                    !- Elevation {m}
  /Users/nmoore/github/urbanopt-example-geojson-project/example_project/weather/USA_NY_Buffalo-Greater.Buffalo.Intl.AP.725280_TMY3.epw, !- Url
  6B50E0FF,                               !- Checksum
  ,                                       !- Start Date Actual Year
  Sunday;                                 !- Start Day of Week

OS:YearDescription,
  {95e8e737-7cc0-427c-acd5-fb21795bd801}, !- Handle
  2007,                                   !- Calendar Year
  ,                                       !- Day of Week for Start Day
  ;                                       !- Is Leap Year

OS:Site,
  {cb8bda14-8354-4081-b1da-78ab929829ba}, !- Handle
  Buffalo Niagara Intl Ap_NY,             !- Name
  42.93,                                  !- Latitude {deg}
  -78.73,                                 !- Longitude {deg}
  -5,                                     !- Time Zone {hr}
  215,                                    !- Elevation {m}
  Suburbs,                                !- Terrain
  Yes;                                    !- Keep Site Location Information

OS:RunPeriodControl:DaylightSavingTime,
  {83c2aa7d-27c4-49b0-9f82-8778f898b0c8}, !- Handle
  Mar 12,                                 !- Start Date
  Nov 5;                                  !- End Date

OS:Site:GroundTemperature:Shallow,
  {48c6f5ff-7793-412f-a954-fc9baa0fd548}, !- Handle
  4.30207395723828,                       !- January Surface Ground Temperature {C}
  2.29327249652502,                       !- February Surface Ground Temperature {C}
  2.13240047156047,                       !- March Surface Ground Temperature {C}
  3.08567940719286,                       !- April Surface Ground Temperature {C}
  6.91256312497526,                       !- May Surface Ground Temperature {C}
  10.7216195949507,                       !- June Surface Ground Temperature {C}
  14.0238679822574,                       !- July Surface Ground Temperature {C}
  16.1157611184724,                       !- August Surface Ground Temperature {C}
  16.2934789303462,                       !- September Surface Ground Temperature {C}
  14.5920754632847,                       !- October Surface Ground Temperature {C}
  11.374036348653,                        !- November Surface Ground Temperature {C}
  7.68182621661674;                       !- December Surface Ground Temperature {C}

OS:ThermalZone,
  {9c283b47-e67f-4ee3-adc1-dd7ffab7e630}, !- Handle
  conditioned space,                      !- Name
  1,                                      !- Multiplier
  ,                                       !- Ceiling Height {m}
  692.06373070848,                        !- Volume {m3}
  ,                                       !- Floor Area {m2}
  ,                                       !- Zone Inside Convection Algorithm
  ,                                       !- Zone Outside Convection Algorithm
  ,                                       !- Zone Conditioning Equipment List Name
  {bfd8c2c0-b994-41b0-8260-86ef2c0f985a}, !- Zone Air Inlet Port List
  {116f6efd-09bf-4fb4-8690-bdb07d039c28}, !- Zone Air Exhaust Port List
  {0f0dc910-93f6-4ea5-9d8a-04ca01ff659d}, !- Zone Air Node Name
  {bb6e7e14-0a25-4435-a176-7d0cffe3d31e}, !- Zone Return Air Port List
  ,                                       !- Primary Daylighting Control Name
  ,                                       !- Fraction of Zone Controlled by Primary Daylighting Control
  ,                                       !- Secondary Daylighting Control Name
  ,                                       !- Fraction of Zone Controlled by Secondary Daylighting Control
  ,                                       !- Illuminance Map Name
  ,                                       !- Group Rendering Name
  {72a0d7ef-f4fc-4725-8b78-fec138ec2a9f}, !- Thermostat Name
  No;                                     !- Use Ideal Air Loads

OS:Node,
  {05440152-97ac-4546-8321-4f537563a6a6}, !- Handle
  Node 1,                                 !- Name
  {0f0dc910-93f6-4ea5-9d8a-04ca01ff659d}, !- Inlet Port
  ;                                       !- Outlet Port

OS:Connection,
  {0f0dc910-93f6-4ea5-9d8a-04ca01ff659d}, !- Handle
  {9c283b47-e67f-4ee3-adc1-dd7ffab7e630}, !- Source Object
  11,                                     !- Outlet Port
  {05440152-97ac-4546-8321-4f537563a6a6}, !- Target Object
  2;                                      !- Inlet Port

OS:PortList,
  {bfd8c2c0-b994-41b0-8260-86ef2c0f985a}, !- Handle
  {9c283b47-e67f-4ee3-adc1-dd7ffab7e630}, !- HVAC Component
  {e4b4b53a-1fdf-4fa1-b208-520eb7d31d85}; !- Port 1

OS:PortList,
  {116f6efd-09bf-4fb4-8690-bdb07d039c28}, !- Handle
  {9c283b47-e67f-4ee3-adc1-dd7ffab7e630}; !- HVAC Component

OS:PortList,
  {bb6e7e14-0a25-4435-a176-7d0cffe3d31e}, !- Handle
  {9c283b47-e67f-4ee3-adc1-dd7ffab7e630}, !- HVAC Component
  {fb7b77a6-8592-4158-aeb7-4062fb065a3f}; !- Port 1

OS:Sizing:Zone,
  {460a224c-376d-4834-b666-6d0d5bc281e0}, !- Handle
  {9c283b47-e67f-4ee3-adc1-dd7ffab7e630}, !- Zone or ZoneList Name
  SupplyAirTemperature,                   !- Zone Cooling Design Supply Air Temperature Input Method
  14,                                     !- Zone Cooling Design Supply Air Temperature {C}
  11.11,                                  !- Zone Cooling Design Supply Air Temperature Difference {deltaC}
  SupplyAirTemperature,                   !- Zone Heating Design Supply Air Temperature Input Method
  40,                                     !- Zone Heating Design Supply Air Temperature {C}
  11.11,                                  !- Zone Heating Design Supply Air Temperature Difference {deltaC}
  0.0085,                                 !- Zone Cooling Design Supply Air Humidity Ratio {kg-H2O/kg-air}
  0.008,                                  !- Zone Heating Design Supply Air Humidity Ratio {kg-H2O/kg-air}
  ,                                       !- Zone Heating Sizing Factor
  ,                                       !- Zone Cooling Sizing Factor
  DesignDay,                              !- Cooling Design Air Flow Method
  ,                                       !- Cooling Design Air Flow Rate {m3/s}
  ,                                       !- Cooling Minimum Air Flow per Zone Floor Area {m3/s-m2}
  ,                                       !- Cooling Minimum Air Flow {m3/s}
  ,                                       !- Cooling Minimum Air Flow Fraction
  DesignDay,                              !- Heating Design Air Flow Method
  ,                                       !- Heating Design Air Flow Rate {m3/s}
  ,                                       !- Heating Maximum Air Flow per Zone Floor Area {m3/s-m2}
  ,                                       !- Heating Maximum Air Flow {m3/s}
  ,                                       !- Heating Maximum Air Flow Fraction
  No,                                     !- Account for Dedicated Outdoor Air System
  NeutralSupplyAir,                       !- Dedicated Outdoor Air System Control Strategy
  autosize,                               !- Dedicated Outdoor Air Low Setpoint Temperature for Design {C}
  autosize,                               !- Dedicated Outdoor Air High Setpoint Temperature for Design {C}
  Sensible Load Only No Latent Load,      !- Zone Load Sizing Method
  HumidityRatioDifference,                !- Zone Latent Cooling Design Supply Air Humidity Ratio Input Method
  ,                                       !- Zone Dehumidification Design Supply Air Humidity Ratio {kgWater/kgDryAir}
  0.005,                                  !- Zone Cooling Design Supply Air Humidity Ratio Difference {kgWater/kgDryAir}
  HumidityRatioDifference,                !- Zone Latent Heating Design Supply Air Humidity Ratio Input Method
  ,                                       !- Zone Humidification Design Supply Air Humidity Ratio {kgWater/kgDryAir}
  0.005,                                  !- Zone Humidification Design Supply Air Humidity Ratio Difference {kgWater/kgDryAir}
  ,                                       !- Zone Humidistat Dehumidification Set Point Schedule Name
  ,                                       !- Zone Humidistat Humidification Set Point Schedule Name
  ,                                       !- Design Zone Air Distribution Effectiveness in Cooling Mode
  ,                                       !- Design Zone Air Distribution Effectiveness in Heating Mode
  ,                                       !- Design Zone Secondary Recirculation Fraction {dimensionless}
  ,                                       !- Design Minimum Zone Ventilation Efficiency {dimensionless}
  Coincident;                             !- Sizing Option

OS:ZoneHVAC:EquipmentList,
  {6cd0c605-b0b7-4159-909e-b357f5df6dad}, !- Handle
  Zone HVAC Equipment List 1,             !- Name
  {9c283b47-e67f-4ee3-adc1-dd7ffab7e630}, !- Thermal Zone
  ,                                       !- Load Distribution Scheme
  {a7dc72ac-f651-4ab5-9e36-2752d06dbbc8}, !- Zone Equipment 1
  1,                                      !- Zone Equipment Cooling Sequence 1
  1,                                      !- Zone Equipment Heating or No-Load Sequence 1
  {54620849-9669-4bed-82a7-19eeb78ed93d}, !- Zone Equipment Sequential Cooling Fraction Schedule Name 1
  {ee25316e-5a56-4041-aa47-25ea2662603e}; !- Zone Equipment Sequential Heating Fraction Schedule Name 1

OS:AdditionalProperties,
  {57a9b274-718d-480e-954e-0860a80c438b}, !- Handle
  {9c283b47-e67f-4ee3-adc1-dd7ffab7e630}, !- Object Name
  ObjectType,                             !- Feature Name 1
  String,                                 !- Feature Data Type 1
  conditioned space;                      !- Feature Value 1

OS:Space,
  {1d8f37c3-0cfc-488b-99d0-9be149800548}, !- Handle
  conditioned space 1,                    !- Name
  ,                                       !- Space Type Name
  ,                                       !- Default Construction Set Name
  ,                                       !- Default Schedule Set Name
  ,                                       !- Direction of Relative North {deg}
  ,                                       !- X Origin {m}
  ,                                       !- Y Origin {m}
  ,                                       !- Z Origin {m}
  ,                                       !- Building Story Name
  {9c283b47-e67f-4ee3-adc1-dd7ffab7e630}, !- Thermal Zone Name
  ,                                       !- Part of Total Floor Area
  ,                                       !- Design Specification Outdoor Air Object Name
  ,                                       !- Building Unit Name
  692.06373070848;                        !- Volume {m3}

OS:Schedule:Ruleset,
  {e0079559-b55b-4e0c-8500-98ef92f3abce}, !- Handle
  heating setpoint,                       !- Name
  {875278c9-10c7-49dd-bc48-42851a7f4610}, !- Schedule Type Limits Name
  {e6cc7c7b-a4a9-4ebd-9da8-0cf227fbad4d}; !- Default Day Schedule Name

OS:Schedule:Day,
  {e6cc7c7b-a4a9-4ebd-9da8-0cf227fbad4d}, !- Handle
  heating setpoint default day,           !- Name
  {875278c9-10c7-49dd-bc48-42851a7f4610}, !- Schedule Type Limits Name
  ,                                       !- Interpolate to Timestep
  24,                                     !- Hour 1
  0,                                      !- Minute 1
  0;                                      !- Value Until Time 1

OS:Schedule:Rule,
  {4341c50d-32d0-4129-b455-2ecc8c81b752}, !- Handle
  heating setpoint allday rule,           !- Name
  {e0079559-b55b-4e0c-8500-98ef92f3abce}, !- Schedule Ruleset Name
  0,                                      !- Rule Order
  {1647db30-9003-41af-b0fd-bd4eb8d56e8e}, !- Day Schedule Name
  Yes,                                    !- Apply Sunday
  Yes,                                    !- Apply Monday
  Yes,                                    !- Apply Tuesday
  Yes,                                    !- Apply Wednesday
  Yes,                                    !- Apply Thursday
  Yes,                                    !- Apply Friday
  Yes,                                    !- Apply Saturday
  DateRange,                              !- Date Specification Type
  1,                                      !- Start Month
  1,                                      !- Start Day
  12,                                     !- End Month
  31;                                     !- End Day

OS:Schedule:Day,
  {1647db30-9003-41af-b0fd-bd4eb8d56e8e}, !- Handle
  heating setpoint day,                   !- Name
  {875278c9-10c7-49dd-bc48-42851a7f4610}, !- Schedule Type Limits Name
  ,                                       !- Interpolate to Timestep
  24,                                     !- Hour 1
  0,                                      !- Minute 1
  20;                                     !- Value Until Time 1

OS:Schedule:Ruleset,
  {90c68537-6ea5-407a-9fda-0586afc2c6eb}, !- Handle
  cooling setpoint,                       !- Name
  {875278c9-10c7-49dd-bc48-42851a7f4610}, !- Schedule Type Limits Name
  {86e2d26b-53d7-4d2e-8add-d3212414dc48}; !- Default Day Schedule Name

OS:Schedule:Day,
  {86e2d26b-53d7-4d2e-8add-d3212414dc48}, !- Handle
  cooling setpoint default day,           !- Name
  {875278c9-10c7-49dd-bc48-42851a7f4610}, !- Schedule Type Limits Name
  ,                                       !- Interpolate to Timestep
  24,                                     !- Hour 1
  0,                                      !- Minute 1
  0;                                      !- Value Until Time 1

OS:Schedule:Rule,
  {9dc1841b-30e8-44a3-b994-767593a70f4f}, !- Handle
  cooling setpoint allday rule,           !- Name
  {90c68537-6ea5-407a-9fda-0586afc2c6eb}, !- Schedule Ruleset Name
  0,                                      !- Rule Order
  {ad6ba21c-4800-4f7f-bc44-00483f62b832}, !- Day Schedule Name
  Yes,                                    !- Apply Sunday
  Yes,                                    !- Apply Monday
  Yes,                                    !- Apply Tuesday
  Yes,                                    !- Apply Wednesday
  Yes,                                    !- Apply Thursday
  Yes,                                    !- Apply Friday
  Yes,                                    !- Apply Saturday
  DateRange,                              !- Date Specification Type
  1,                                      !- Start Month
  1,                                      !- Start Day
  12,                                     !- End Month
  31;                                     !- End Day

OS:Schedule:Day,
  {ad6ba21c-4800-4f7f-bc44-00483f62b832}, !- Handle
  cooling setpoint day,                   !- Name
  {875278c9-10c7-49dd-bc48-42851a7f4610}, !- Schedule Type Limits Name
  ,                                       !- Interpolate to Timestep
  24,                                     !- Hour 1
  0,                                      !- Minute 1
  25.5555555555556;                       !- Value Until Time 1

OS:ThermostatSetpoint:DualSetpoint,
  {72a0d7ef-f4fc-4725-8b78-fec138ec2a9f}, !- Handle
  conditioned space temperature setpoint, !- Name
  {e0079559-b55b-4e0c-8500-98ef92f3abce}, !- Heating Setpoint Temperature Schedule Name
  {90c68537-6ea5-407a-9fda-0586afc2c6eb}, !- Cooling Setpoint Temperature Schedule Name
  0;                                      !- Temperature Difference Between Cutout And Setpoint {deltaC}

OS:ScheduleTypeLimits,
  {875278c9-10c7-49dd-bc48-42851a7f4610}, !- Handle
  Temperature,                            !- Name
  ,                                       !- Lower Limit Value
  ,                                       !- Upper Limit Value
  Continuous,                             !- Numeric Type
  Temperature;                            !- Unit Type

OS:Surface,
  {643cc3bc-d6de-4c95-bf24-1b8365d92ca8}, !- Handle
  Roof1,                                  !- Name
  RoofCeiling,                            !- Surface Type
  {c4e88b82-4d8f-4877-960a-8c6627db7843}, !- Construction Name
  {925fa225-3967-4fbf-880a-d0a25c138df6}, !- Space Name
  Outdoors,                               !- Outside Boundary Condition
  ,                                       !- Outside Boundary Condition Object
  SunExposed,                             !- Sun Exposure
  WindExposed,                            !- Wind Exposure
  ,                                       !- View Factor to Ground
  ,                                       !- Number of Vertices
  -26.9347048849634, 58.0557891618865, 2.4384, !- X,Y,Z Vertex 1 {m}
  -26.9347048849634, 46.7895631136661, 8.0715130241102, !- X,Y,Z Vertex 2 {m}
  -14.3386812381136, 46.7895631136661, 8.0715130241102, !- X,Y,Z Vertex 3 {m}
  -14.3386812381136, 58.0557891618865, 2.4384; !- X,Y,Z Vertex 4 {m}

OS:AdditionalProperties,
  {e4df439b-addc-4d72-86fe-0b7d645ba31a}, !- Handle
  {643cc3bc-d6de-4c95-bf24-1b8365d92ca8}, !- Object Name
  Length,                                 !- Feature Name 1
  Double,                                 !- Feature Data Type 1
  41.325536899113608,                     !- Feature Value 1
  Width,                                  !- Feature Name 2
  Double,                                 !- Feature Data Type 2
  41.325536899113601,                     !- Feature Value 2
  Azimuth,                                !- Feature Name 3
  Integer,                                !- Feature Data Type 3
  0,                                      !- Feature Value 3
  Tilt,                                   !- Feature Name 4
  Double,                                 !- Feature Data Type 4
  0.5,                                    !- Feature Value 4
  SurfaceType,                            !- Feature Name 5
  String,                                 !- Feature Data Type 5
  Roof;                                   !- Feature Value 5

OS:ThermalZone,
  {516722f4-d687-47cf-b2d1-a07abb3b3b64}, !- Handle
  attic - vented,                         !- Name
  1,                                      !- Multiplier
  ,                                       !- Ceiling Height {m}
  356.389957095237,                       !- Volume {m3}
  ,                                       !- Floor Area {m2}
  ,                                       !- Zone Inside Convection Algorithm
  ,                                       !- Zone Outside Convection Algorithm
  ,                                       !- Zone Conditioning Equipment List Name
  {11d3d9ec-e213-4df2-b170-74eef04eb4d8}, !- Zone Air Inlet Port List
  {3db550fe-9622-4b37-b3e2-53b4869c0659}, !- Zone Air Exhaust Port List
  {dfa31499-9ead-4375-b34c-eb06b95f1c0f}, !- Zone Air Node Name
  {47994a63-0319-4480-931f-69b986b5b773}, !- Zone Return Air Port List
  ,                                       !- Primary Daylighting Control Name
  ,                                       !- Fraction of Zone Controlled by Primary Daylighting Control
  ,                                       !- Secondary Daylighting Control Name
  ,                                       !- Fraction of Zone Controlled by Secondary Daylighting Control
  ,                                       !- Illuminance Map Name
  ,                                       !- Group Rendering Name
  ,                                       !- Thermostat Name
  No;                                     !- Use Ideal Air Loads

OS:Node,
  {c7d75e8f-0d7e-4db2-b874-e24d181a42d4}, !- Handle
  Node 2,                                 !- Name
  {dfa31499-9ead-4375-b34c-eb06b95f1c0f}, !- Inlet Port
  ;                                       !- Outlet Port

OS:Connection,
  {dfa31499-9ead-4375-b34c-eb06b95f1c0f}, !- Handle
  {516722f4-d687-47cf-b2d1-a07abb3b3b64}, !- Source Object
  11,                                     !- Outlet Port
  {c7d75e8f-0d7e-4db2-b874-e24d181a42d4}, !- Target Object
  2;                                      !- Inlet Port

OS:PortList,
  {11d3d9ec-e213-4df2-b170-74eef04eb4d8}, !- Handle
  {516722f4-d687-47cf-b2d1-a07abb3b3b64}; !- HVAC Component

OS:PortList,
  {3db550fe-9622-4b37-b3e2-53b4869c0659}, !- Handle
  {516722f4-d687-47cf-b2d1-a07abb3b3b64}; !- HVAC Component

OS:PortList,
  {47994a63-0319-4480-931f-69b986b5b773}, !- Handle
  {516722f4-d687-47cf-b2d1-a07abb3b3b64}; !- HVAC Component

OS:Sizing:Zone,
  {9f011311-a790-43d5-bc88-eff8380ccfcf}, !- Handle
  {516722f4-d687-47cf-b2d1-a07abb3b3b64}, !- Zone or ZoneList Name
  SupplyAirTemperature,                   !- Zone Cooling Design Supply Air Temperature Input Method
  14,                                     !- Zone Cooling Design Supply Air Temperature {C}
  11.11,                                  !- Zone Cooling Design Supply Air Temperature Difference {deltaC}
  SupplyAirTemperature,                   !- Zone Heating Design Supply Air Temperature Input Method
  40,                                     !- Zone Heating Design Supply Air Temperature {C}
  11.11,                                  !- Zone Heating Design Supply Air Temperature Difference {deltaC}
  0.0085,                                 !- Zone Cooling Design Supply Air Humidity Ratio {kg-H2O/kg-air}
  0.008,                                  !- Zone Heating Design Supply Air Humidity Ratio {kg-H2O/kg-air}
  ,                                       !- Zone Heating Sizing Factor
  ,                                       !- Zone Cooling Sizing Factor
  DesignDay,                              !- Cooling Design Air Flow Method
  ,                                       !- Cooling Design Air Flow Rate {m3/s}
  ,                                       !- Cooling Minimum Air Flow per Zone Floor Area {m3/s-m2}
  ,                                       !- Cooling Minimum Air Flow {m3/s}
  ,                                       !- Cooling Minimum Air Flow Fraction
  DesignDay,                              !- Heating Design Air Flow Method
  ,                                       !- Heating Design Air Flow Rate {m3/s}
  ,                                       !- Heating Maximum Air Flow per Zone Floor Area {m3/s-m2}
  ,                                       !- Heating Maximum Air Flow {m3/s}
  ,                                       !- Heating Maximum Air Flow Fraction
  No,                                     !- Account for Dedicated Outdoor Air System
  NeutralSupplyAir,                       !- Dedicated Outdoor Air System Control Strategy
  autosize,                               !- Dedicated Outdoor Air Low Setpoint Temperature for Design {C}
  autosize,                               !- Dedicated Outdoor Air High Setpoint Temperature for Design {C}
  Sensible Load Only No Latent Load,      !- Zone Load Sizing Method
  HumidityRatioDifference,                !- Zone Latent Cooling Design Supply Air Humidity Ratio Input Method
  ,                                       !- Zone Dehumidification Design Supply Air Humidity Ratio {kgWater/kgDryAir}
  0.005,                                  !- Zone Cooling Design Supply Air Humidity Ratio Difference {kgWater/kgDryAir}
  HumidityRatioDifference,                !- Zone Latent Heating Design Supply Air Humidity Ratio Input Method
  ,                                       !- Zone Humidification Design Supply Air Humidity Ratio {kgWater/kgDryAir}
  0.005,                                  !- Zone Humidification Design Supply Air Humidity Ratio Difference {kgWater/kgDryAir}
  ,                                       !- Zone Humidistat Dehumidification Set Point Schedule Name
  ,                                       !- Zone Humidistat Humidification Set Point Schedule Name
  ,                                       !- Design Zone Air Distribution Effectiveness in Cooling Mode
  ,                                       !- Design Zone Air Distribution Effectiveness in Heating Mode
  ,                                       !- Design Zone Secondary Recirculation Fraction {dimensionless}
  ,                                       !- Design Minimum Zone Ventilation Efficiency {dimensionless}
  Coincident;                             !- Sizing Option

OS:ZoneHVAC:EquipmentList,
  {97b117c2-4fed-4dab-8408-c91826904e3e}, !- Handle
  Zone HVAC Equipment List 2,             !- Name
  {516722f4-d687-47cf-b2d1-a07abb3b3b64}; !- Thermal Zone

OS:AdditionalProperties,
  {4fe64981-6004-4665-9e1c-69f6535773b6}, !- Handle
  {516722f4-d687-47cf-b2d1-a07abb3b3b64}, !- Object Name
  ObjectType,                             !- Feature Name 1
  String,                                 !- Feature Data Type 1
  attic - vented;                         !- Feature Value 1

OS:Space,
  {925fa225-3967-4fbf-880a-d0a25c138df6}, !- Handle
  attic - vented 1,                       !- Name
  ,                                       !- Space Type Name
  ,                                       !- Default Construction Set Name
  ,                                       !- Default Schedule Set Name
  ,                                       !- Direction of Relative North {deg}
  ,                                       !- X Origin {m}
  ,                                       !- Y Origin {m}
  ,                                       !- Z Origin {m}
  ,                                       !- Building Story Name
  {516722f4-d687-47cf-b2d1-a07abb3b3b64}, !- Thermal Zone Name
  ,                                       !- Part of Total Floor Area
  ,                                       !- Design Specification Outdoor Air Object Name
  ,                                       !- Building Unit Name
  356.389957095237;                       !- Volume {m3}

OS:Material,
  {30cf8b60-6056-4f91-aff4-4e520d845abe}, !- Handle
  asphalt or fiberglass shingles,         !- Name
  Rough,                                  !- Roughness
  0.00635,                                !- Thickness {m}
  0.162714,                               !- Conductivity {W/m-K}
  1121.4,                                 !- Density {kg/m3}
  1465.45,                                !- Specific Heat {J/kg-K}
  0.9,                                    !- Thermal Absorptance
  0.85,                                   !- Solar Absorptance