
OS:Version,
  {af164e4f-a0f6-4862-be4d-5d5c70583578}, !- Handle
  3.10.0;                                 !- Version Identifier

OS:SimulationControl,
  {3c32afd5-9b5e-4d6e-a40a-6bba75918d04}, !- Handle
  ,                                       !- Do Zone Sizing Calculation
  ,                                       !- Do System Sizing Calculation
  ,                                       !- Do Plant Sizing Calculation
  No;                                     !- Run Simulation for Sizing Periods

OS:Timestep,
  {d8800778-80ee-4bc0-8f81-bffc3aec213f}, !- Handle
  1;                                      !- Number of Timesteps per Hour

OS:ShadowCalculation,
  {870aa1f8-b593-4ad0-bf4b-e99c8fef5bc4}, !- Handle
  PolygonClipping,                        !- Shading Calculation Method
  ,                                       !- Shading Calculation Update Frequency Method
  20,                                     !- Shading Calculation Update Frequency
  200,                                    !- Maximum Figures in Shadow Overlap Calculations
  ,                                       !- Polygon Clipping Algorithm
  512,                                    !- Pixel Counting Resolution
  ,                                       !- Sky Diffuse Modeling Algorithm
  No,                                     !- Output External Shading Calculation Results
  No,                                     !- Disable Self-Shading Within Shading Zone Groups
  No;                                     !- Disable Self-Shading From Shading Zone Groups to Other Zones

OS:SurfaceConvectionAlgorithm:Outside,
  {fee0f791-4c77-44a2-8794-074747a0116f}, !- Handle
  DOE-2;                                  !- Algorithm

OS:SurfaceConvectionAlgorithm:Inside,
  {466e635f-c39a-4c9f-808d-f8a00e59e045}, !- Handle
  TARP;                                   !- Algorithm

OS:ZoneCapacitanceMultiplier:ResearchSpecial,
  {89481414-0134-482e-9584-315de483e080}, !- Handle
  7,                                      !- Temperature Capacity Multiplier
  15,                                     !- Humidity Capacity Multiplier
  ;                                       !- Carbon Dioxide Capacity Multiplier

OS:ConvergenceLimits,
  {6a73c388-f0d2-420e-a6e4-331e083f7423}, !- Handle
  0;                                      !- Minimum System Timestep {minutes}

OS:RunPeriod,
  {338c9942-9497-42f7-9626-35051f90088e}, !- Handle
  Run Period 1,                           !- Name
  1,                                      !- Begin Month
  1,                                      !- Begin Day of Month
  12,                                     !- End Month
  31,                                     !- End Day of Month
  ,                                       !- Use Weather File Holidays and Special Days
  ,                                       !- Use Weather File Daylight Saving Period
  ,                                       !- Apply Weekend Holiday Rule
  ,                                       !- Use Weather File Rain Indicators
  ,                                       !- Use Weather File Snow Indicators
  ;                                       !- Number of Times Runperiod to be Repeated

OS:PerformancePrecisionTradeoffs,
  {e9396c64-ce81-4e6d-a4f1-9d4f08807db6}, !- Handle
  ,                                       !- Use Coil Direct Solutions
  CarrollMRT;                             !- Zone Radiant Exchange Algorithm

OS:WeatherFile,
  {c9f7cd12-9e32-4e0f-9f38-968ad2cb3aa0}, !- Handle
  Buffalo Niagara Intl Ap,                !- City
  NY,                                     !- State Province Region
  USA,                                    !- Country
  TMY3,                                   !- Data Source
  725280,                                 !- WMO Number
  42.93,                                  !- Latitude {deg}
  -78.73,                                 !- Longitude {deg}
  -5,                                     !- Time Zone {hr}
  215,                                    !- Elevation {m}
  /Users/nmoore/github/urbanopt-example-geojson-project/example_project/weather/USA_NY_Buffalo-Greater.Buffalo.Intl.AP.725280_TMY3.epw, !- Url
  6B50E0FF,                               !- Checksum
  ,                                       !- Start Date Actual Year
  Sunday;                                 !- Start Day of Week

OS:YearDescription,
  {fa6e24b4-dc51-440d-8395-79ad564f58b1}, !- Handle
  2007,                                   !- Calendar Year
  ,                                       !- Day of Week for Start Day
  ;                                       !- Is Leap Year

OS:Site,
  {2cd81c59-05bc-4064-b983-fc407f43ba2c}, !- Handle
  Buffalo Niagara Intl Ap_NY,             !- Name
  42.93,                                  !- Latitude {deg}
  -78.73,                                 !- Longitude {deg}
  -5,                                     !- Time Zone {hr}
  215,                                    !- Elevation {m}
  Suburbs,                                !- Terrain
  Yes;                                    !- Keep Site Location Information

OS:RunPeriodControl:DaylightSavingTime,
  {8de01bd2-bd97-4a6f-8847-34fa436c1e7c}, !- Handle
  Mar 12,                                 !- Start Date
  Nov 5;                                  !- End Date

OS:Site:GroundTemperature:Shallow,
  {d97a236b-ef2e-45ad-8971-f8c102db4ac3}, !- Handle
  4.30207395723828,                       !- January Surface Ground Temperature {C}
  2.29327249652502,                       !- February Surface Ground Temperature {C}
  2.13240047156047,                       !- March Surface Ground Temperature {C}
  3.08567940719286,                       !- April Surface Ground Temperature {C}
  6.91256312497526,                       !- May Surface Ground Temperature {C}
  10.7216195949507,                       !- June Surface Ground Temperature {C}
  14.0238679822574,                       !- July Surface Ground Temperature {C}
  16.1157611184724,                       !- August Surface Ground Temperature {C}
  16.2934789303462,                       !- September Surface Ground Temperature {C}
  14.5920754632847,                       !- October Surface Ground Temperature {C}
  11.374036348653,                        !- November Surface Ground Temperature {C}
  7.68182621661674;                       !- December Surface Ground Temperature {C}

OS:ThermalZone,
  {d4393874-dcb2-4fc8-904e-add2c49a482f}, !- Handle
  conditioned space,                      !- Name
  1,                                      !- Multiplier
  ,                                       !- Ceiling Height {m}
  692.06373070848,                        !- Volume {m3}
  ,                                       !- Floor Area {m2}
  ,                                       !- Zone Inside Convection Algorithm
  ,                                       !- Zone Outside Convection Algorithm
  ,                                       !- Zone Conditioning Equipment List Name
  {482af6b9-7efc-44fc-a684-b9423423675d}, !- Zone Air Inlet Port List
  {4e2d4b77-6f2e-4dba-8315-4358a59e8b9b}, !- Zone Air Exhaust Port List
  {8c9f8df2-ba0e-486a-82fa-53e253da0ee8}, !- Zone Air Node Name
  {34499209-c33b-48cc-af3a-abab5cd565f1}, !- Zone Return Air Port List
  ,                                       !- Primary Daylighting Control Name
  ,                                       !- Fraction of Zone Controlled by Primary Daylighting Control
  ,                                       !- Secondary Daylighting Control Name
  ,                                       !- Fraction of Zone Controlled by Secondary Daylighting Control
  ,                                       !- Illuminance Map Name
  ,                                       !- Group Rendering Name
  {aebf07ff-df37-4c8b-91ca-6b877ea72a9a}, !- Thermostat Name
  No;                                     !- Use Ideal Air Loads

OS:Node,
  {41c2fcdb-331f-484d-a55c-ac387315904d}, !- Handle
  Node 1,                                 !- Name
  {8c9f8df2-ba0e-486a-82fa-53e253da0ee8}, !- Inlet Port
  ;                                       !- Outlet Port

OS:Connection,
  {8c9f8df2-ba0e-486a-82fa-53e253da0ee8}, !- Handle
  {d4393874-dcb2-4fc8-904e-add2c49a482f}, !- Source Object
  11,                                     !- Outlet Port
  {41c2fcdb-331f-484d-a55c-ac387315904d}, !- Target Object
  2;                                      !- Inlet Port

OS:PortList,
  {482af6b9-7efc-44fc-a684-b9423423675d}, !- Handle
  {d4393874-dcb2-4fc8-904e-add2c49a482f}, !- HVAC Component
  {c694b1cc-7131-43c2-b169-90698177171f}; !- Port 1

OS:PortList,
  {4e2d4b77-6f2e-4dba-8315-4358a59e8b9b}, !- Handle
  {d4393874-dcb2-4fc8-904e-add2c49a482f}; !- HVAC Component

OS:PortList,
  {34499209-c33b-48cc-af3a-abab5cd565f1}, !- Handle
  {d4393874-dcb2-4fc8-904e-add2c49a482f}, !- HVAC Component
  {e664e3a9-4ded-4393-aac4-d0fe3555ada3}; !- Port 1

OS:Sizing:Zone,
  {452cdee7-adfb-4a78-b5e2-ca1c3ff953ba}, !- Handle
  {d4393874-dcb2-4fc8-904e-add2c49a482f}, !- Zone or ZoneList Name
  SupplyAirTemperature,                   !- Zone Cooling Design Supply Air Temperature Input Method
  14,                                     !- Zone Cooling Design Supply Air Temperature {C}
  11.11,                                  !- Zone Cooling Design Supply Air Temperature Difference {deltaC}
  SupplyAirTemperature,                   !- Zone Heating Design Supply Air Temperature Input Method
  40,                                     !- Zone Heating Design Supply Air Temperature {C}
  11.11,                                  !- Zone Heating Design Supply Air Temperature Difference {deltaC}
  0.0085,                                 !- Zone Cooling Design Supply Air Humidity Ratio {kg-H2O/kg-air}
  0.008,                                  !- Zone Heating Design Supply Air Humidity Ratio {kg-H2O/kg-air}
  ,                                       !- Zone Heating Sizing Factor
  ,                                       !- Zone Cooling Sizing Factor
  DesignDay,                              !- Cooling Design Air Flow Method
  ,                                       !- Cooling Design Air Flow Rate {m3/s}
  ,                                       !- Cooling Minimum Air Flow per Zone Floor Area {m3/s-m2}
  ,                                       !- Cooling Minimum Air Flow {m3/s}
  ,                                       !- Cooling Minimum Air Flow Fraction
  DesignDay,                              !- Heating Design Air Flow Method
  ,                                       !- Heating Design Air Flow Rate {m3/s}
  ,                                       !- Heating Maximum Air Flow per Zone Floor Area {m3/s-m2}
  ,                                       !- Heating Maximum Air Flow {m3/s}
  ,                                       !- Heating Maximum Air Flow Fraction
  No,                                     !- Account for Dedicated Outdoor Air System
  NeutralSupplyAir,                       !- Dedicated Outdoor Air System Control Strategy
  autosize,                               !- Dedicated Outdoor Air Low Setpoint Temperature for Design {C}
  autosize,                               !- Dedicated Outdoor Air High Setpoint Temperature for Design {C}
  Sensible Load Only No Latent Load,      !- Zone Load Sizing Method
  HumidityRatioDifference,                !- Zone Latent Cooling Design Supply Air Humidity Ratio Input Method
  ,                                       !- Zone Dehumidification Design Supply Air Humidity Ratio {kgWater/kgDryAir}
  0.005,                                  !- Zone Cooling Design Supply Air Humidity Ratio Difference {kgWater/kgDryAir}
  HumidityRatioDifference,                !- Zone Latent Heating Design Supply Air Humidity Ratio Input Method
  ,                                       !- Zone Humidification Design Supply Air Humidity Ratio {kgWater/kgDryAir}
  0.005,                                  !- Zone Humidification Design Supply Air Humidity Ratio Difference {kgWater/kgDryAir}
  ,                                       !- Zone Humidistat Dehumidification Set Point Schedule Name
  ,                                       !- Zone Humidistat Humidification Set Point Schedule Name
  ,                                       !- Design Zone Air Distribution Effectiveness in Cooling Mode
  ,                                       !- Design Zone Air Distribution Effectiveness in Heating Mode
  ,                                       !- Design Zone Secondary Recirculation Fraction {dimensionless}
  ,                                       !- Design Minimum Zone Ventilation Efficiency {dimensionless}
  Coincident;                             !- Sizing Option

OS:ZoneHVAC:EquipmentList,
  {116ea625-00fb-43b7-a7d2-5ae07bf9d705}, !- Handle
  Zone HVAC Equipment List 1,             !- Name
  {d4393874-dcb2-4fc8-904e-add2c49a482f}, !- Thermal Zone
  ,                                       !- Load Distribution Scheme
  {7a8d9d37-1861-4f01-b9ac-94ffb2ec4502}, !- Zone Equipment 1
  1,                                      !- Zone Equipment Cooling Sequence 1
  1,                                      !- Zone Equipment Heating or No-Load Sequence 1
  {045a785c-eae5-4283-93d8-c9a505230ecc}, !- Zone Equipment Sequential Cooling Fraction Schedule Name 1
  {ab3ac4ef-dcdb-48c5-bd63-ae064520a410}; !- Zone Equipment Sequential Heating Fraction Schedule Name 1

OS:AdditionalProperties,
  {ed26c2fc-97ef-41c3-a7be-6e578e4bf958}, !- Handle
  {d4393874-dcb2-4fc8-904e-add2c49a482f}, !- Object Name
  ObjectType,                             !- Feature Name 1
  String,                                 !- Feature Data Type 1
  conditioned space;                      !- Feature Value 1

OS:Space,
  {fce101eb-4f86-49bf-8e8e-80a2e294a017}, !- Handle
  conditioned space 1,                    !- Name
  ,                                       !- Space Type Name
  ,                                       !- Default Construction Set Name
  ,                                       !- Default Schedule Set Name
  ,                                       !- Direction of Relative North {deg}
  ,                                       !- X Origin {m}
  ,                                       !- Y Origin {m}
  ,                                       !- Z Origin {m}
  ,                                       !- Building Story Name
  {d4393874-dcb2-4fc8-904e-add2c49a482f}, !- Thermal Zone Name
  ,                                       !- Part of Total Floor Area
  ,                                       !- Design Specification Outdoor Air Object Name
  ,                                       !- Building Unit Name
  692.06373070848;                        !- Volume {m3}

OS:Schedule:Ruleset,
  {958d0eb2-a09c-450b-b531-b77b645f88d2}, !- Handle
  heating setpoint,                       !- Name
  {563a4a78-995d-4405-811b-2761c6611fb8}, !- Schedule Type Limits Name
  {413aeb5f-3866-4248-ab66-db9428156cf9}; !- Default Day Schedule Name

OS:Schedule:Day,
  {413aeb5f-3866-4248-ab66-db9428156cf9}, !- Handle
  heating setpoint default day,           !- Name
  {563a4a78-995d-4405-811b-2761c6611fb8}, !- Schedule Type Limits Name
  ,                                       !- Interpolate to Timestep
  24,                                     !- Hour 1
  0,                                      !- Minute 1
  0;                                      !- Value Until Time 1

OS:Schedule:Rule,
  {46c35cbb-91ee-408d-9bea-8aaa65071a95}, !- Handle
  heating setpoint allday rule,           !- Name
  {958d0eb2-a09c-450b-b531-b77b645f88d2}, !- Schedule Ruleset Name
  0,                                      !- Rule Order
  {e160c5d0-2c81-4e7b-872f-4259161911da}, !- Day Schedule Name
  Yes,                                    !- Apply Sunday
  Yes,                                    !- Apply Monday
  Yes,                                    !- Apply Tuesday
  Yes,                                    !- Apply Wednesday
  Yes,                                    !- Apply Thursday
  Yes,                                    !- Apply Friday
  Yes,                                    !- Apply Saturday
  DateRange,                              !- Date Specification Type
  1,                                      !- Start Month
  1,                                      !- Start Day
  12,                                     !- End Month
  31;                                     !- End Day

OS:Schedule:Day,
  {e160c5d0-2c81-4e7b-872f-4259161911da}, !- Handle
  heating setpoint day,                   !- Name
  {563a4a78-995d-4405-811b-2761c6611fb8}, !- Schedule Type Limits Name
  ,                                       !- Interpolate to Timestep
  24,                                     !- Hour 1
  0,                                      !- Minute 1
  20;                                     !- Value Until Time 1

OS:Schedule:Ruleset,
  {83abb0fb-6535-4c17-a426-88d08d61e579}, !- Handle
  cooling setpoint,                       !- Name
  {563a4a78-995d-4405-811b-2761c6611fb8}, !- Schedule Type Limits Name
  {2a2bf9b3-24c8-4230-bdc5-1ecceec8626e}; !- Default Day Schedule Name

OS:Schedule:Day,
  {2a2bf9b3-24c8-4230-bdc5-1ecceec8626e}, !- Handle
  cooling setpoint default day,           !- Name
  {563a4a78-995d-4405-811b-2761c6611fb8}, !- Schedule Type Limits Name
  ,                                       !- Interpolate to Timestep
  24,                                     !- Hour 1
  0,                                      !- Minute 1
  0;                                      !- Value Until Time 1

OS:Schedule:Rule,
  {87203fae-448a-4d13-88df-631bce02d429}, !- Handle
  cooling setpoint allday rule,           !- Name
  {83abb0fb-6535-4c17-a426-88d08d61e579}, !- Schedule Ruleset Name
  0,                                      !- Rule Order
  {47138d57-ab3d-4fd8-9cc6-550b8d1c8806}, !- Day Schedule Name
  Yes,                                    !- Apply Sunday
  Yes,                                    !- Apply Monday
  Yes,                                    !- Apply Tuesday
  Yes,                                    !- Apply Wednesday
  Yes,                                    !- Apply Thursday
  Yes,                                    !- Apply Friday
  Yes,                                    !- Apply Saturday
  DateRange,                              !- Date Specification Type
  1,                                      !- Start Month
  1,                                      !- Start Day
  12,                                     !- End Month
  31;                                     !- End Day

OS:Schedule:Day,
  {47138d57-ab3d-4fd8-9cc6-550b8d1c8806}, !- Handle
  cooling setpoint day,                   !- Name
  {563a4a78-995d-4405-811b-2761c6611fb8}, !- Schedule Type Limits Name
  ,                                       !- Interpolate to Timestep
  24,                                     !- Hour 1
  0,                                      !- Minute 1
  25.5555555555556;                       !- Value Until Time 1

OS:ThermostatSetpoint:DualSetpoint,
  {aebf07ff-df37-4c8b-91ca-6b877ea72a9a}, !- Handle
  conditioned space temperature setpoint, !- Name
  {958d0eb2-a09c-450b-b531-b77b645f88d2}, !- Heating Setpoint Temperature Schedule Name
  {83abb0fb-6535-4c17-a426-88d08d61e579}, !- Cooling Setpoint Temperature Schedule Name
  0;                                      !- Temperature Difference Between Cutout And Setpoint {deltaC}

OS:ScheduleTypeLimits,
  {563a4a78-995d-4405-811b-2761c6611fb8}, !- Handle
  Temperature,                            !- Name
  ,                                       !- Lower Limit Value
  ,                                       !- Upper Limit Value
  Continuous,                             !- Numeric Type
  Temperature;                            !- Unit Type

OS:Surface,
  {c71d6de8-ae62-4bf9-b860-7c4fd8951058}, !- Handle
  Roof1,                                  !- Name
  RoofCeiling,                            !- Surface Type
  {27453283-88fd-43ba-8915-31712976afbb}, !- Construction Name
  {63d41c2b-fdee-45a0-ac91-b77d24f8fb4e}, !- Space Name
  Outdoors,                               !- Outside Boundary Condition
  ,                                       !- Outside Boundary Condition Object
  SunExposed,                             !- Sun Exposure
  WindExposed,                            !- Wind Exposure
  ,                                       !- View Factor to Ground
  ,                                       !- Number of Vertices
  -26.9347048849634, 58.0557891618865, 2.4384, !- X,Y,Z Vertex 1 {m}
  -26.9347048849634, 46.7895631136661, 8.0715130241102, !- X,Y,Z Vertex 2 {m}
  -14.3386812381136, 46.7895631136661, 8.0715130241102, !- X,Y,Z Vertex 3 {m}
  -14.3386812381136, 58.0557891618865, 2.4384; !- X,Y,Z Vertex 4 {m}

OS:AdditionalProperties,
  {1d0b2d26-b43e-43cd-a0cb-106b4d216b0e}, !- Handle
  {c71d6de8-ae62-4bf9-b860-7c4fd8951058}, !- Object Name
  Length,                                 !- Feature Name 1
  Double,                                 !- Feature Data Type 1
  41.325536899113608,                     !- Feature Value 1
  Width,                                  !- Feature Name 2
  Double,                                 !- Feature Data Type 2
  41.325536899113601,                     !- Feature Value 2
  Azimuth,                                !- Feature Name 3
  Integer,                                !- Feature Data Type 3
  0,                                      !- Feature Value 3
  Tilt,                                   !- Feature Name 4
  Double,                                 !- Feature Data Type 4
  0.5,                                    !- Feature Value 4
  SurfaceType,                            !- Feature Name 5
  String,                                 !- Feature Data Type 5
  Roof;                                   !- Feature Value 5

OS:ThermalZone,
  {4f44a60d-a52b-4634-bd08-027dffa26025}, !- Handle
  attic - vented,                         !- Name
  1,                                      !- Multiplier
  ,                                       !- Ceiling Height {m}
  356.390921899745,                       !- Volume {m3}
  ,                                       !- Floor Area {m2}
  ,                                       !- Zone Inside Convection Algorithm
  ,                                       !- Zone Outside Convection Algorithm
  ,                                       !- Zone Conditioning Equipment List Name
  {4e521469-7fbf-41f8-9bda-e011aa7d6fdd}, !- Zone Air Inlet Port List
  {9d81c486-5537-408c-94a4-ae9a24980bcb}, !- Zone Air Exhaust Port List
  {528c51fe-3fdb-4df0-b5c6-f7672bd0e5dd}, !- Zone Air Node Name
  {888a7145-7974-4ec6-8839-ad52598d9d42}, !- Zone Return Air Port List
  ,                                       !- Primary Daylighting Control Name
  ,                                       !- Fraction of Zone Controlled by Primary Daylighting Control
  ,                                       !- Secondary Daylighting Control Name
  ,                                       !- Fraction of Zone Controlled by Secondary Daylighting Control
  ,                                       !- Illuminance Map Name
  ,                                       !- Group Rendering Name
  ,                                       !- Thermostat Name
  No;                                     !- Use Ideal Air Loads

OS:Node,
  {7a1cb351-84ba-4123-b34f-7e7510cec081}, !- Handle
  Node 2,                                 !- Name
  {528c51fe-3fdb-4df0-b5c6-f7672bd0e5dd}, !- Inlet Port
  ;                                       !- Outlet Port

OS:Connection,
  {528c51fe-3fdb-4df0-b5c6-f7672bd0e5dd}, !- Handle
  {4f44a60d-a52b-4634-bd08-027dffa26025}, !- Source Object
  11,                                     !- Outlet Port
  {7a1cb351-84ba-4123-b34f-7e7510cec081}, !- Target Object
  2;                                      !- Inlet Port

OS:PortList,
  {4e521469-7fbf-41f8-9bda-e011aa7d6fdd}, !- Handle
  {4f44a60d-a52b-4634-bd08-027dffa26025}; !- HVAC Component

OS:PortList,
  {9d81c486-5537-408c-94a4-ae9a24980bcb}, !- Handle
  {4f44a60d-a52b-4634-bd08-027dffa26025}; !- HVAC Component

OS:PortList,
  {888a7145-7974-4ec6-8839-ad52598d9d42}, !- Handle
  {4f44a60d-a52b-4634-bd08-027dffa26025}; !- HVAC Component

OS:Sizing:Zone,
  {43ae9394-e2b1-4e5a-ae31-1c83b78cf21a}, !- Handle
  {4f44a60d-a52b-4634-bd08-027dffa26025}, !- Zone or ZoneList Name
  SupplyAirTemperature,                   !- Zone Cooling Design Supply Air Temperature Input Method
  14,                                     !- Zone Cooling Design Supply Air Temperature {C}
  11.11,                                  !- Zone Cooling Design Supply Air Temperature Difference {deltaC}
  SupplyAirTemperature,                   !- Zone Heating Design Supply Air Temperature Input Method
  40,                                     !- Zone Heating Design Supply Air Temperature {C}
  11.11,                                  !- Zone Heating Design Supply Air Temperature Difference {deltaC}
  0.0085,                                 !- Zone Cooling Design Supply Air Humidity Ratio {kg-H2O/kg-air}
  0.008,                                  !- Zone Heating Design Supply Air Humidity Ratio {kg-H2O/kg-air}
  ,                                       !- Zone Heating Sizing Factor
  ,                                       !- Zone Cooling Sizing Factor
  DesignDay,                              !- Cooling Design Air Flow Method
  ,                                       !- Cooling Design Air Flow Rate {m3/s}
  ,                                       !- Cooling Minimum Air Flow per Zone Floor Area {m3/s-m2}
  ,                                       !- Cooling Minimum Air Flow {m3/s}
  ,                                       !- Cooling Minimum Air Flow Fraction
  DesignDay,                              !- Heating Design Air Flow Method
  ,                                       !- Heating Design Air Flow Rate {m3/s}
  ,                                       !- Heating Maximum Air Flow per Zone Floor Area {m3/s-m2}
  ,                                       !- Heating Maximum Air Flow {m3/s}
  ,                                       !- Heating Maximum Air Flow Fraction
  No,                                     !- Account for Dedicated Outdoor Air System
  NeutralSupplyAir,                       !- Dedicated Outdoor Air System Control Strategy
  autosize,                               !- Dedicated Outdoor Air Low Setpoint Temperature for Design {C}
  autosize,                               !- Dedicated Outdoor Air High Setpoint Temperature for Design {C}
  Sensible Load Only No Latent Load,      !- Zone Load Sizing Method
  HumidityRatioDifference,                !- Zone Latent Cooling Design Supply Air Humidity Ratio Input Method
  ,                                       !- Zone Dehumidification Design Supply Air Humidity Ratio {kgWater/kgDryAir}
  0.005,                                  !- Zone Cooling Design Supply Air Humidity Ratio Difference {kgWater/kgDryAir}
  HumidityRatioDifference,                !- Zone Latent Heating Design Supply Air Humidity Ratio Input Method
  ,                                       !- Zone Humidification Design Supply Air Humidity Ratio {kgWater/kgDryAir}
  0.005,                                  !- Zone Humidification Design Supply Air Humidity Ratio Difference {kgWater/kgDryAir}
  ,                                       !- Zone Humidistat Dehumidification Set Point Schedule Name
  ,                                       !- Zone Humidistat Humidification Set Point Schedule Name
  ,                                       !- Design Zone Air Distribution Effectiveness in Cooling Mode
  ,                                       !- Design Zone Air Distribution Effectiveness in Heating Mode
  ,                                       !- Design Zone Secondary Recirculation Fraction {dimensionless}
  ,                                       !- Design Minimum Zone Ventilation Efficiency {dimensionless}
  Coincident;                             !- Sizing Option

OS:ZoneHVAC:EquipmentList,
  {d5d9b970-8dd1-4435-919b-b898eba27547}, !- Handle
  Zone HVAC Equipment List 2,             !- Name
  {4f44a60d-a52b-4634-bd08-027dffa26025}; !- Thermal Zone

OS:AdditionalProperties,
  {bc41cc2e-4f78-446c-a99e-d2418092cab9}, !- Handle
  {4f44a60d-a52b-4634-bd08-027dffa26025}, !- Object Name
  ObjectType,                             !- Feature Name 1
  String,                                 !- Feature Data Type 1
  attic - vented;                         !- Feature Value 1

OS:Space,
  {63d41c2b-fdee-45a0-ac91-b77d24f8fb4e}, !- Handle
  attic - vented 1,                       !- Name
  ,                                       !- Space Type Name
  ,                                       !- Default Construction Set Name
  ,                                       !- Default Schedule Set Name
  ,                                       !- Direction of Relative North {deg}
  ,                                       !- X Origin {m}
  ,                                       !- Y Origin {m}
  ,                                       !- Z Origin {m}
  ,                                       !- Building Story Name
  {4f44a60d-a52b-4634-bd08-027dffa26025}, !- Thermal Zone Name
  ,                                       !- Part of Total Floor Area
  ,                                       !- Design Specification Outdoor Air Object Name
  ,                                       !- Building Unit Name
  356.390921899745;                       !- Volume {m3}

OS:Material,
  {024a22a3-6439-4189-8231-195a4c4b3dfd}, !- Handle
  asphalt or fiberglass shingles,         !- Name
  Rough,                                  !- Roughness
  0.00635,                                !- Thickness {m}
  0.162714,                               !- Conductivity {W/m-K}
  1121.4,                                 !- Density {kg/m3}
  1465.45,                                !- Specific Heat {J/kg-K}
  0.9,                                    !- Thermal Absorptance
  0.85,                                   !- Solar Absorptance