
OS:Version,
  {248b6547-54ce-4b7f-9e27-febdf4ef51aa}, !- Handle
  3.9.0;                                  !- Version Identifier

OS:SimulationControl,
  {3ba7a6c5-2cba-481a-989e-9dd1769867a2}, !- Handle
  ,                                       !- Do Zone Sizing Calculation
  ,                                       !- Do System Sizing Calculation
  ,                                       !- Do Plant Sizing Calculation
  No;                                     !- Run Simulation for Sizing Periods

OS:Timestep,
  {c3686c70-53d6-4c30-8f3c-c5986db13b96}, !- Handle
  1;                                      !- Number of Timesteps per Hour

OS:ShadowCalculation,
  {196abf52-f960-4b20-9f12-c54b5cafa7dc}, !- Handle
  PolygonClipping,                        !- Shading Calculation Method
  ,                                       !- Shading Calculation Update Frequency Method
  20,                                     !- Shading Calculation Update Frequency
  200,                                    !- Maximum Figures in Shadow Overlap Calculations
  ,                                       !- Polygon Clipping Algorithm
  512,                                    !- Pixel Counting Resolution
  ,                                       !- Sky Diffuse Modeling Algorithm
  No,                                     !- Output External Shading Calculation Results
  No,                                     !- Disable Self-Shading Within Shading Zone Groups
  No;                                     !- Disable Self-Shading From Shading Zone Groups to Other Zones

OS:SurfaceConvectionAlgorithm:Outside,
  {db841a06-752f-4616-a7f7-60caf0009245}, !- Handle
  DOE-2;                                  !- Algorithm

OS:SurfaceConvectionAlgorithm:Inside,
  {81717963-cfb5-46b8-9e90-1812f7bd520a}, !- Handle
  TARP;                                   !- Algorithm

OS:ZoneCapacitanceMultiplier:ResearchSpecial,
  {2bf071d8-c13d-417d-8046-ace82d722fc7}, !- Handle
  7,                                      !- Temperature Capacity Multiplier
  15,                                     !- Humidity Capacity Multiplier
  ;                                       !- Carbon Dioxide Capacity Multiplier

OS:ConvergenceLimits,
  {bf236aac-364e-47e8-a932-b34b2e056681}, !- Handle
  0;                                      !- Minimum System Timestep {minutes}

OS:RunPeriod,
  {36481474-45cc-4e01-82e9-d8fbb2ec2bd1}, !- Handle
  Run Period 1,                           !- Name
  1,                                      !- Begin Month
  1,                                      !- Begin Day of Month
  12,                                     !- End Month
  31,                                     !- End Day of Month
  ,                                       !- Use Weather File Holidays and Special Days
  ,                                       !- Use Weather File Daylight Saving Period
  ,                                       !- Apply Weekend Holiday Rule
  ,                                       !- Use Weather File Rain Indicators
  ,                                       !- Use Weather File Snow Indicators
  ;                                       !- Number of Times Runperiod to be Repeated

OS:PerformancePrecisionTradeoffs,
  {095bc65f-f5a9-48a0-8693-4d53d1633b26}, !- Handle
  ,                                       !- Use Coil Direct Solutions
  CarrollMRT;                             !- Zone Radiant Exchange Algorithm

OS:WeatherFile,
  {85c2d4a4-699a-4495-8b96-043f5211ddfd}, !- Handle
  Buffalo Niagara Intl Ap,                !- City
  NY,                                     !- State Province Region
  USA,                                    !- Country
  TMY3,                                   !- Data Source
  725280,                                 !- WMO Number
  42.93,                                  !- Latitude {deg}
  -78.73,                                 !- Longitude {deg}
  -5,                                     !- Time Zone {hr}
  215,                                    !- Elevation {m}
  /Users/nmoore/github/urbanopt-example-geojson-project/example_project/weather/USA_NY_Buffalo-Greater.Buffalo.Intl.AP.725280_TMY3.epw, !- Url
  6B50E0FF,                               !- Checksum
  ,                                       !- Start Date Actual Year
  Sunday;                                 !- Start Day of Week

OS:YearDescription,
  {daa6aac3-83f7-459e-b5c4-a6c9d7aec759}, !- Handle
  2007,                                   !- Calendar Year
  ,                                       !- Day of Week for Start Day
  ;                                       !- Is Leap Year

OS:Site,
  {c35c5805-c8c9-46ad-a0e3-00f7faa62134}, !- Handle
  Buffalo Niagara Intl Ap_NY,             !- Name
  42.93,                                  !- Latitude {deg}
  -78.73,                                 !- Longitude {deg}
  -5,                                     !- Time Zone {hr}
  215,                                    !- Elevation {m}
  Suburbs,                                !- Terrain
  Yes;                                    !- Keep Site Location Information

OS:RunPeriodControl:DaylightSavingTime,
  {9140f3ea-ae15-4473-b93b-c8166f58c865}, !- Handle
  Mar 12,                                 !- Start Date
  Nov 5;                                  !- End Date

OS:Site:GroundTemperature:Shallow,
  {7af96478-7cfd-4a09-85b8-54bd221642c4}, !- Handle
  4.30207395723828,                       !- January Surface Ground Temperature {C}
  2.29327249652502,                       !- February Surface Ground Temperature {C}
  2.13240047156047,                       !- March Surface Ground Temperature {C}
  3.08567940719286,                       !- April Surface Ground Temperature {C}
  6.91256312497526,                       !- May Surface Ground Temperature {C}
  10.7216195949507,                       !- June Surface Ground Temperature {C}
  14.0238679822574,                       !- July Surface Ground Temperature {C}
  16.1157611184724,                       !- August Surface Ground Temperature {C}
  16.2934789303462,                       !- September Surface Ground Temperature {C}
  14.5920754632847,                       !- October Surface Ground Temperature {C}
  11.374036348653,                        !- November Surface Ground Temperature {C}
  7.68182621661674;                       !- December Surface Ground Temperature {C}

OS:ThermalZone,
  {d6ef90c7-8c4f-4119-8a99-fa04d2eec7d5}, !- Handle
  conditioned space,                      !- Name
  1,                                      !- Multiplier
  ,                                       !- Ceiling Height {m}
  692.06373070848,                        !- Volume {m3}
  ,                                       !- Floor Area {m2}
  ,                                       !- Zone Inside Convection Algorithm
  ,                                       !- Zone Outside Convection Algorithm
  ,                                       !- Zone Conditioning Equipment List Name
  {08296fec-88fb-4982-af70-a494835c57d2}, !- Zone Air Inlet Port List
  {92314a85-7250-4420-9423-a9fe72711ad0}, !- Zone Air Exhaust Port List
  {0e7dd995-6309-49d4-8675-af7ed367497f}, !- Zone Air Node Name
  {9fb98ff0-3eb6-4457-b943-f1417ccfb00e}, !- Zone Return Air Port List
  ,                                       !- Primary Daylighting Control Name
  ,                                       !- Fraction of Zone Controlled by Primary Daylighting Control
  ,                                       !- Secondary Daylighting Control Name
  ,                                       !- Fraction of Zone Controlled by Secondary Daylighting Control
  ,                                       !- Illuminance Map Name
  ,                                       !- Group Rendering Name
  {710330b0-a8a2-4c0a-a64d-3c26a0271dcd}, !- Thermostat Name
  No;                                     !- Use Ideal Air Loads

OS:Node,
  {4f884882-9754-4d12-873c-6ddc61cbff48}, !- Handle
  Node 1,                                 !- Name
  {0e7dd995-6309-49d4-8675-af7ed367497f}, !- Inlet Port
  ;                                       !- Outlet Port

OS:Connection,
  {0e7dd995-6309-49d4-8675-af7ed367497f}, !- Handle
  {d6ef90c7-8c4f-4119-8a99-fa04d2eec7d5}, !- Source Object
  11,                                     !- Outlet Port
  {4f884882-9754-4d12-873c-6ddc61cbff48}, !- Target Object
  2;                                      !- Inlet Port

OS:PortList,
  {08296fec-88fb-4982-af70-a494835c57d2}, !- Handle
  {d6ef90c7-8c4f-4119-8a99-fa04d2eec7d5}, !- HVAC Component
  {aaa7cb18-f64d-4536-a05d-5f8f113e91df}; !- Port 1

OS:PortList,
  {92314a85-7250-4420-9423-a9fe72711ad0}, !- Handle
  {d6ef90c7-8c4f-4119-8a99-fa04d2eec7d5}; !- HVAC Component

OS:PortList,
  {9fb98ff0-3eb6-4457-b943-f1417ccfb00e}, !- Handle
  {d6ef90c7-8c4f-4119-8a99-fa04d2eec7d5}, !- HVAC Component
  {24e9fe1e-7c67-4163-a1a6-1c24c9c47416}; !- Port 1

OS:Sizing:Zone,
  {857d9e58-ad3f-44a7-bf75-66dc638f5134}, !- Handle
  {d6ef90c7-8c4f-4119-8a99-fa04d2eec7d5}, !- Zone or ZoneList Name
  SupplyAirTemperature,                   !- Zone Cooling Design Supply Air Temperature Input Method
  14,                                     !- Zone Cooling Design Supply Air Temperature {C}
  11.11,                                  !- Zone Cooling Design Supply Air Temperature Difference {deltaC}
  SupplyAirTemperature,                   !- Zone Heating Design Supply Air Temperature Input Method
  40,                                     !- Zone Heating Design Supply Air Temperature {C}
  11.11,                                  !- Zone Heating Design Supply Air Temperature Difference {deltaC}
  0.0085,                                 !- Zone Cooling Design Supply Air Humidity Ratio {kg-H2O/kg-air}
  0.008,                                  !- Zone Heating Design Supply Air Humidity Ratio {kg-H2O/kg-air}
  ,                                       !- Zone Heating Sizing Factor
  ,                                       !- Zone Cooling Sizing Factor
  DesignDay,                              !- Cooling Design Air Flow Method
  ,                                       !- Cooling Design Air Flow Rate {m3/s}
  ,                                       !- Cooling Minimum Air Flow per Zone Floor Area {m3/s-m2}
  ,                                       !- Cooling Minimum Air Flow {m3/s}
  ,                                       !- Cooling Minimum Air Flow Fraction
  DesignDay,                              !- Heating Design Air Flow Method
  ,                                       !- Heating Design Air Flow Rate {m3/s}
  ,                                       !- Heating Maximum Air Flow per Zone Floor Area {m3/s-m2}
  ,                                       !- Heating Maximum Air Flow {m3/s}
  ,                                       !- Heating Maximum Air Flow Fraction
  No,                                     !- Account for Dedicated Outdoor Air System
  NeutralSupplyAir,                       !- Dedicated Outdoor Air System Control Strategy
  autosize,                               !- Dedicated Outdoor Air Low Setpoint Temperature for Design {C}
  autosize,                               !- Dedicated Outdoor Air High Setpoint Temperature for Design {C}
  Sensible Load Only No Latent Load,      !- Zone Load Sizing Method
  HumidityRatioDifference,                !- Zone Latent Cooling Design Supply Air Humidity Ratio Input Method
  ,                                       !- Zone Dehumidification Design Supply Air Humidity Ratio {kgWater/kgDryAir}
  0.005,                                  !- Zone Cooling Design Supply Air Humidity Ratio Difference {kgWater/kgDryAir}
  HumidityRatioDifference,                !- Zone Latent Heating Design Supply Air Humidity Ratio Input Method
  ,                                       !- Zone Humidification Design Supply Air Humidity Ratio {kgWater/kgDryAir}
  0.005,                                  !- Zone Humidification Design Supply Air Humidity Ratio Difference {kgWater/kgDryAir}
  ,                                       !- Zone Humidistat Dehumidification Set Point Schedule Name
  ,                                       !- Zone Humidistat Humidification Set Point Schedule Name
  ,                                       !- Design Zone Air Distribution Effectiveness in Cooling Mode
  ,                                       !- Design Zone Air Distribution Effectiveness in Heating Mode
  ,                                       !- Design Zone Secondary Recirculation Fraction {dimensionless}
  ,                                       !- Design Minimum Zone Ventilation Efficiency {dimensionless}
  Coincident;                             !- Sizing Option

OS:ZoneHVAC:EquipmentList,
  {c62db636-84f5-4b89-96fa-18d173843ef5}, !- Handle
  Zone HVAC Equipment List 1,             !- Name
  {d6ef90c7-8c4f-4119-8a99-fa04d2eec7d5}, !- Thermal Zone
  ,                                       !- Load Distribution Scheme
  {76a86db1-38e4-46ee-af2c-2cef67d0cfbe}, !- Zone Equipment 1
  1,                                      !- Zone Equipment Cooling Sequence 1
  1,                                      !- Zone Equipment Heating or No-Load Sequence 1
  {74fb1cf4-d956-4cea-b007-ac16e235773b}, !- Zone Equipment Sequential Cooling Fraction Schedule Name 1
  {7b3de4df-981f-496d-956f-3b15fa04e095}; !- Zone Equipment Sequential Heating Fraction Schedule Name 1

OS:AdditionalProperties,
  {64e11c0f-4dbd-43b4-849a-fb76d5187db4}, !- Handle
  {d6ef90c7-8c4f-4119-8a99-fa04d2eec7d5}, !- Object Name
  ObjectType,                             !- Feature Name 1
  String,                                 !- Feature Data Type 1
  conditioned space;                      !- Feature Value 1

OS:Space,
  {95e4ae68-62ba-4750-af06-ace3ca5afd76}, !- Handle
  conditioned space 1,                    !- Name
  ,                                       !- Space Type Name
  ,                                       !- Default Construction Set Name
  ,                                       !- Default Schedule Set Name
  ,                                       !- Direction of Relative North {deg}
  ,                                       !- X Origin {m}
  ,                                       !- Y Origin {m}
  ,                                       !- Z Origin {m}
  ,                                       !- Building Story Name
  {d6ef90c7-8c4f-4119-8a99-fa04d2eec7d5}, !- Thermal Zone Name
  ,                                       !- Part of Total Floor Area
  ,                                       !- Design Specification Outdoor Air Object Name
  ,                                       !- Building Unit Name
  692.06373070848;                        !- Volume {m3}

OS:Schedule:Ruleset,
  {06a781ad-d370-482a-9e2b-eb3bb790182c}, !- Handle
  heating setpoint,                       !- Name
  {16592f9f-2759-47f2-a4e3-7beea7ae95a3}, !- Schedule Type Limits Name
  {d1067107-3699-40df-8321-8e1bcedfe9bf}; !- Default Day Schedule Name

OS:Schedule:Day,
  {d1067107-3699-40df-8321-8e1bcedfe9bf}, !- Handle
  heating setpoint default day,           !- Name
  {16592f9f-2759-47f2-a4e3-7beea7ae95a3}, !- Schedule Type Limits Name
  ,                                       !- Interpolate to Timestep
  24,                                     !- Hour 1
  0,                                      !- Minute 1
  0;                                      !- Value Until Time 1

OS:Schedule:Rule,
  {11b7b638-50cc-4386-8913-45b1e1d4d127}, !- Handle
  heating setpoint allday rule,           !- Name
  {06a781ad-d370-482a-9e2b-eb3bb790182c}, !- Schedule Ruleset Name
  0,                                      !- Rule Order
  {7dcf5f80-cb12-40c5-87a0-3afdfe7e5b40}, !- Day Schedule Name
  Yes,                                    !- Apply Sunday
  Yes,                                    !- Apply Monday
  Yes,                                    !- Apply Tuesday
  Yes,                                    !- Apply Wednesday
  Yes,                                    !- Apply Thursday
  Yes,                                    !- Apply Friday
  Yes,                                    !- Apply Saturday
  DateRange,                              !- Date Specification Type
  1,                                      !- Start Month
  1,                                      !- Start Day
  12,                                     !- End Month
  31;                                     !- End Day

OS:Schedule:Day,
  {7dcf5f80-cb12-40c5-87a0-3afdfe7e5b40}, !- Handle
  heating setpoint day,                   !- Name
  {16592f9f-2759-47f2-a4e3-7beea7ae95a3}, !- Schedule Type Limits Name
  ,                                       !- Interpolate to Timestep
  24,                                     !- Hour 1
  0,                                      !- Minute 1
  20;                                     !- Value Until Time 1

OS:Schedule:Ruleset,
  {c1985b05-ed8b-425d-b4ad-aa5c979b1163}, !- Handle
  cooling setpoint,                       !- Name
  {16592f9f-2759-47f2-a4e3-7beea7ae95a3}, !- Schedule Type Limits Name
  {3d9c697d-ead7-40b0-a017-e4cf7271fc7d}; !- Default Day Schedule Name

OS:Schedule:Day,
  {3d9c697d-ead7-40b0-a017-e4cf7271fc7d}, !- Handle
  cooling setpoint default day,           !- Name
  {16592f9f-2759-47f2-a4e3-7beea7ae95a3}, !- Schedule Type Limits Name
  ,                                       !- Interpolate to Timestep
  24,                                     !- Hour 1
  0,                                      !- Minute 1
  0;                                      !- Value Until Time 1

OS:Schedule:Rule,
  {b81e96b6-eb28-4d19-b335-4d51d7869fa4}, !- Handle
  cooling setpoint allday rule,           !- Name
  {c1985b05-ed8b-425d-b4ad-aa5c979b1163}, !- Schedule Ruleset Name
  0,                                      !- Rule Order
  {5d328703-6a45-457f-96f2-2d31548e5983}, !- Day Schedule Name
  Yes,                                    !- Apply Sunday
  Yes,                                    !- Apply Monday
  Yes,                                    !- Apply Tuesday
  Yes,                                    !- Apply Wednesday
  Yes,                                    !- Apply Thursday
  Yes,                                    !- Apply Friday
  Yes,                                    !- Apply Saturday
  DateRange,                              !- Date Specification Type
  1,                                      !- Start Month
  1,                                      !- Start Day
  12,                                     !- End Month
  31;                                     !- End Day

OS:Schedule:Day,
  {5d328703-6a45-457f-96f2-2d31548e5983}, !- Handle
  cooling setpoint day,                   !- Name
  {16592f9f-2759-47f2-a4e3-7beea7ae95a3}, !- Schedule Type Limits Name
  ,                                       !- Interpolate to Timestep
  24,                                     !- Hour 1
  0,                                      !- Minute 1
  25.5555555555556;                       !- Value Until Time 1

OS:ThermostatSetpoint:DualSetpoint,
  {710330b0-a8a2-4c0a-a64d-3c26a0271dcd}, !- Handle
  conditioned space temperature setpoint, !- Name
  {06a781ad-d370-482a-9e2b-eb3bb790182c}, !- Heating Setpoint Temperature Schedule Name
  {c1985b05-ed8b-425d-b4ad-aa5c979b1163}, !- Cooling Setpoint Temperature Schedule Name
  0;                                      !- Temperature Difference Between Cutout And Setpoint {deltaC}

OS:ScheduleTypeLimits,
  {16592f9f-2759-47f2-a4e3-7beea7ae95a3}, !- Handle
  Temperature,                            !- Name
  ,                                       !- Lower Limit Value
  ,                                       !- Upper Limit Value
  Continuous,                             !- Numeric Type
  Temperature;                            !- Unit Type

OS:Surface,
  {47a64df2-2e1d-4a81-a418-d017657d107b}, !- Handle
  Roof1,                                  !- Name
  RoofCeiling,                            !- Surface Type
  {57bafd56-470d-4180-aa27-853e0fde1bb1}, !- Construction Name
  {e08f90e2-bb46-4f5f-b24c-07e9a3bad624}, !- Space Name
  Outdoors,                               !- Outside Boundary Condition
  ,                                       !- Outside Boundary Condition Object
  SunExposed,                             !- Sun Exposure
  WindExposed,                            !- Wind Exposure
  ,                                       !- View Factor to Ground
  ,                                       !- Number of Vertices
  -26.9347048849634, 58.0557891618865, 2.4384, !- X,Y,Z Vertex 1 {m}
  -26.9347048849634, 46.7895631136661, 8.0715130241102, !- X,Y,Z Vertex 2 {m}
  -14.3386812381136, 46.7895631136661, 8.0715130241102, !- X,Y,Z Vertex 3 {m}
  -14.3386812381136, 58.0557891618865, 2.4384; !- X,Y,Z Vertex 4 {m}

OS:AdditionalProperties,
  {f1eaa24e-4acd-41e3-8d6c-43619a929d4a}, !- Handle
  {47a64df2-2e1d-4a81-a418-d017657d107b}, !- Object Name
  Length,                                 !- Feature Name 1
  Double,                                 !- Feature Data Type 1
  41.325536899113608,                     !- Feature Value 1
  Width,                                  !- Feature Name 2
  Double,                                 !- Feature Data Type 2
  41.325536899113601,                     !- Feature Value 2
  Azimuth,                                !- Feature Name 3
  Integer,                                !- Feature Data Type 3
  0,                                      !- Feature Value 3
  Tilt,                                   !- Feature Name 4
  Double,                                 !- Feature Data Type 4
  0.5,                                    !- Feature Value 4
  SurfaceType,                            !- Feature Name 5
  String,                                 !- Feature Data Type 5
  Roof;                                   !- Feature Value 5

OS:ThermalZone,
  {5bd5de57-1af4-4e87-8aef-5b934a62584e}, !- Handle
  attic - vented,                         !- Name
  1,                                      !- Multiplier
  ,                                       !- Ceiling Height {m}
  356.389957095237,                       !- Volume {m3}
  ,                                       !- Floor Area {m2}
  ,                                       !- Zone Inside Convection Algorithm
  ,                                       !- Zone Outside Convection Algorithm
  ,                                       !- Zone Conditioning Equipment List Name
  {91fd5d54-69e6-493f-a8ff-4cb4c3269cd7}, !- Zone Air Inlet Port List
  {438147dd-9a72-4663-b126-889e62bd8c00}, !- Zone Air Exhaust Port List
  {5f926230-0782-4186-9d8a-59a1736b812d}, !- Zone Air Node Name
  {10c36d60-2a44-435c-a2d4-70689425d3d8}, !- Zone Return Air Port List
  ,                                       !- Primary Daylighting Control Name
  ,                                       !- Fraction of Zone Controlled by Primary Daylighting Control
  ,                                       !- Secondary Daylighting Control Name
  ,                                       !- Fraction of Zone Controlled by Secondary Daylighting Control
  ,                                       !- Illuminance Map Name
  ,                                       !- Group Rendering Name
  ,                                       !- Thermostat Name
  No;                                     !- Use Ideal Air Loads

OS:Node,
  {4bdfcd6d-5204-4be6-897c-8792573976fe}, !- Handle
  Node 2,                                 !- Name
  {5f926230-0782-4186-9d8a-59a1736b812d}, !- Inlet Port
  ;                                       !- Outlet Port

OS:Connection,
  {5f926230-0782-4186-9d8a-59a1736b812d}, !- Handle
  {5bd5de57-1af4-4e87-8aef-5b934a62584e}, !- Source Object
  11,                                     !- Outlet Port
  {4bdfcd6d-5204-4be6-897c-8792573976fe}, !- Target Object
  2;                                      !- Inlet Port

OS:PortList,
  {91fd5d54-69e6-493f-a8ff-4cb4c3269cd7}, !- Handle
  {5bd5de57-1af4-4e87-8aef-5b934a62584e}; !- HVAC Component

OS:PortList,
  {438147dd-9a72-4663-b126-889e62bd8c00}, !- Handle
  {5bd5de57-1af4-4e87-8aef-5b934a62584e}; !- HVAC Component

OS:PortList,
  {10c36d60-2a44-435c-a2d4-70689425d3d8}, !- Handle
  {5bd5de57-1af4-4e87-8aef-5b934a62584e}; !- HVAC Component

OS:Sizing:Zone,
  {3757fbdf-8baf-4ed5-bfc8-bac9c8f702f8}, !- Handle
  {5bd5de57-1af4-4e87-8aef-5b934a62584e}, !- Zone or ZoneList Name
  SupplyAirTemperature,                   !- Zone Cooling Design Supply Air Temperature Input Method
  14,                                     !- Zone Cooling Design Supply Air Temperature {C}
  11.11,                                  !- Zone Cooling Design Supply Air Temperature Difference {deltaC}
  SupplyAirTemperature,                   !- Zone Heating Design Supply Air Temperature Input Method
  40,                                     !- Zone Heating Design Supply Air Temperature {C}
  11.11,                                  !- Zone Heating Design Supply Air Temperature Difference {deltaC}
  0.0085,                                 !- Zone Cooling Design Supply Air Humidity Ratio {kg-H2O/kg-air}
  0.008,                                  !- Zone Heating Design Supply Air Humidity Ratio {kg-H2O/kg-air}
  ,                                       !- Zone Heating Sizing Factor
  ,                                       !- Zone Cooling Sizing Factor
  DesignDay,                              !- Cooling Design Air Flow Method
  ,                                       !- Cooling Design Air Flow Rate {m3/s}
  ,                                       !- Cooling Minimum Air Flow per Zone Floor Area {m3/s-m2}
  ,                                       !- Cooling Minimum Air Flow {m3/s}
  ,                                       !- Cooling Minimum Air Flow Fraction
  DesignDay,                              !- Heating Design Air Flow Method
  ,                                       !- Heating Design Air Flow Rate {m3/s}
  ,                                       !- Heating Maximum Air Flow per Zone Floor Area {m3/s-m2}
  ,                                       !- Heating Maximum Air Flow {m3/s}
  ,                                       !- Heating Maximum Air Flow Fraction
  No,                                     !- Account for Dedicated Outdoor Air System
  NeutralSupplyAir,                       !- Dedicated Outdoor Air System Control Strategy
  autosize,                               !- Dedicated Outdoor Air Low Setpoint Temperature for Design {C}
  autosize,                               !- Dedicated Outdoor Air High Setpoint Temperature for Design {C}
  Sensible Load Only No Latent Load,      !- Zone Load Sizing Method
  HumidityRatioDifference,                !- Zone Latent Cooling Design Supply Air Humidity Ratio Input Method
  ,                                       !- Zone Dehumidification Design Supply Air Humidity Ratio {kgWater/kgDryAir}
  0.005,                                  !- Zone Cooling Design Supply Air Humidity Ratio Difference {kgWater/kgDryAir}
  HumidityRatioDifference,                !- Zone Latent Heating Design Supply Air Humidity Ratio Input Method
  ,                                       !- Zone Humidification Design Supply Air Humidity Ratio {kgWater/kgDryAir}
  0.005,                                  !- Zone Humidification Design Supply Air Humidity Ratio Difference {kgWater/kgDryAir}
  ,                                       !- Zone Humidistat Dehumidification Set Point Schedule Name
  ,                                       !- Zone Humidistat Humidification Set Point Schedule Name
  ,                                       !- Design Zone Air Distribution Effectiveness in Cooling Mode
  ,                                       !- Design Zone Air Distribution Effectiveness in Heating Mode
  ,                                       !- Design Zone Secondary Recirculation Fraction {dimensionless}
  ,                                       !- Design Minimum Zone Ventilation Efficiency {dimensionless}
  Coincident;                             !- Sizing Option

OS:ZoneHVAC:EquipmentList,
  {910c1e28-5cfc-4095-a5f6-5229ffe9cfae}, !- Handle
  Zone HVAC Equipment List 2,             !- Name
  {5bd5de57-1af4-4e87-8aef-5b934a62584e}; !- Thermal Zone

OS:AdditionalProperties,
  {a905adf0-368e-41de-89f9-dc6b25486ada}, !- Handle
  {5bd5de57-1af4-4e87-8aef-5b934a62584e}, !- Object Name
  ObjectType,                             !- Feature Name 1
  String,                                 !- Feature Data Type 1
  attic - vented;                         !- Feature Value 1

OS:Space,
  {e08f90e2-bb46-4f5f-b24c-07e9a3bad624}, !- Handle
  attic - vented 1,                       !- Name
  ,                                       !- Space Type Name
  ,                                       !- Default Construction Set Name
  ,                                       !- Default Schedule Set Name
  ,                                       !- Direction of Relative North {deg}
  ,                                       !- X Origin {m}
  ,                                       !- Y Origin {m}
  ,                                       !- Z Origin {m}
  ,                                       !- Building Story Name
  {5bd5de57-1af4-4e87-8aef-5b934a62584e}, !- Thermal Zone Name
  ,                                       !- Part of Total Floor Area
  ,                                       !- Design Specification Outdoor Air Object Name
  ,                                       !- Building Unit Name
  356.389957095237;                       !- Volume {m3}

OS:Material,
  {e3d3f5e3-61d0-48bf-8a5b-1b63cdda7210}, !- Handle
  asphalt or fiberglass shingles,         !- Name
  Rough,                                  !- Roughness
  0.00635,                                !- Thickness {m}
  0.162714,                               !- Conductivity {W/m-K}
  1121.4,                                 !- Density {kg/m3}
  1465.45,                                !- Specific Heat {J/kg-K}
  0.9,                                    !- Thermal Absorptance
  0.85,                                   !- Solar Absorptance