
OS:Version,
  {9770f191-ebc8-4a5a-96bb-fd10eeab41ad}, !- Handle
  3.9.0;                                  !- Version Identifier

OS:SimulationControl,
  {9abc227a-78b6-456f-aec5-01e62acef6b2}, !- Handle
  ,                                       !- Do Zone Sizing Calculation
  ,                                       !- Do System Sizing Calculation
  ,                                       !- Do Plant Sizing Calculation
  No;                                     !- Run Simulation for Sizing Periods

OS:Timestep,
  {1b1e1c17-45b5-4c3e-a732-b9d1fb80256a}, !- Handle
  1;                                      !- Number of Timesteps per Hour

OS:ShadowCalculation,
  {939124b4-3c93-4247-9ade-f08e34fd0d6c}, !- Handle
  PolygonClipping,                        !- Shading Calculation Method
  ,                                       !- Shading Calculation Update Frequency Method
  20,                                     !- Shading Calculation Update Frequency
  200,                                    !- Maximum Figures in Shadow Overlap Calculations
  ,                                       !- Polygon Clipping Algorithm
  512,                                    !- Pixel Counting Resolution
  ,                                       !- Sky Diffuse Modeling Algorithm
  No,                                     !- Output External Shading Calculation Results
  No,                                     !- Disable Self-Shading Within Shading Zone Groups
  No;                                     !- Disable Self-Shading From Shading Zone Groups to Other Zones

OS:SurfaceConvectionAlgorithm:Outside,
  {fd7c2bc4-ec83-4665-8103-0aae6db91d09}, !- Handle
  DOE-2;                                  !- Algorithm

OS:SurfaceConvectionAlgorithm:Inside,
  {e144726a-88a1-46f0-ab74-eed19f93c98c}, !- Handle
  TARP;                                   !- Algorithm

OS:ZoneCapacitanceMultiplier:ResearchSpecial,
  {887290a7-fc0b-4002-b538-b9b0c658019e}, !- Handle
  7,                                      !- Temperature Capacity Multiplier
  15,                                     !- Humidity Capacity Multiplier
  ;                                       !- Carbon Dioxide Capacity Multiplier

OS:ConvergenceLimits,
  {af40f32f-9ff0-48d4-b517-4df709c3b699}, !- Handle
  0;                                      !- Minimum System Timestep {minutes}

OS:RunPeriod,
  {08c2c806-a015-4b64-9357-b07fad998dca}, !- Handle
  Run Period 1,                           !- Name
  1,                                      !- Begin Month
  1,                                      !- Begin Day of Month
  12,                                     !- End Month
  31,                                     !- End Day of Month
  ,                                       !- Use Weather File Holidays and Special Days
  ,                                       !- Use Weather File Daylight Saving Period
  ,                                       !- Apply Weekend Holiday Rule
  ,                                       !- Use Weather File Rain Indicators
  ,                                       !- Use Weather File Snow Indicators
  ;                                       !- Number of Times Runperiod to be Repeated

OS:PerformancePrecisionTradeoffs,
  {00aef091-b5a4-41fa-a232-84d627fdafe2}, !- Handle
  ,                                       !- Use Coil Direct Solutions
  CarrollMRT;                             !- Zone Radiant Exchange Algorithm

OS:WeatherFile,
  {fb600c16-4a6f-41be-839d-a471e02e83c8}, !- Handle
  Buffalo Niagara Intl Ap,                !- City
  NY,                                     !- State Province Region
  USA,                                    !- Country
  TMY3,                                   !- Data Source
  725280,                                 !- WMO Number
  42.93,                                  !- Latitude {deg}
  -78.73,                                 !- Longitude {deg}
  -5,                                     !- Time Zone {hr}
  215,                                    !- Elevation {m}
  /Users/nmoore/github/urbanopt-example-geojson-project/example_project/weather/USA_NY_Buffalo-Greater.Buffalo.Intl.AP.725280_TMY3.epw, !- Url
  6B50E0FF,                               !- Checksum
  ,                                       !- Start Date Actual Year
  Sunday;                                 !- Start Day of Week

OS:YearDescription,
  {07153a3c-8404-43a2-b749-ec85e5f2f726}, !- Handle
  2007,                                   !- Calendar Year
  ,                                       !- Day of Week for Start Day
  ;                                       !- Is Leap Year

OS:Site,
  {62425e37-19c5-42e7-a31c-9a5281563eca}, !- Handle
  Buffalo Niagara Intl Ap_NY,             !- Name
  42.93,                                  !- Latitude {deg}
  -78.73,                                 !- Longitude {deg}
  -5,                                     !- Time Zone {hr}
  215,                                    !- Elevation {m}
  Suburbs,                                !- Terrain
  Yes;                                    !- Keep Site Location Information

OS:RunPeriodControl:DaylightSavingTime,
  {dc677462-12f4-4b8a-9b71-1b83d461799f}, !- Handle
  Mar 12,                                 !- Start Date
  Nov 5;                                  !- End Date

OS:Site:GroundTemperature:Shallow,
  {1d50326f-9e96-4e31-a84e-96481581ac59}, !- Handle
  4.30207395723828,                       !- January Surface Ground Temperature {C}
  2.29327249652502,                       !- February Surface Ground Temperature {C}
  2.13240047156047,                       !- March Surface Ground Temperature {C}
  3.08567940719286,                       !- April Surface Ground Temperature {C}
  6.91256312497526,                       !- May Surface Ground Temperature {C}
  10.7216195949507,                       !- June Surface Ground Temperature {C}
  14.0238679822574,                       !- July Surface Ground Temperature {C}
  16.1157611184724,                       !- August Surface Ground Temperature {C}
  16.2934789303462,                       !- September Surface Ground Temperature {C}
  14.5920754632847,                       !- October Surface Ground Temperature {C}
  11.374036348653,                        !- November Surface Ground Temperature {C}
  7.68182621661674;                       !- December Surface Ground Temperature {C}

OS:ThermalZone,
  {c29aca9f-5e9d-4a5d-96db-24d8345af976}, !- Handle
  conditioned space,                      !- Name
  1,                                      !- Multiplier
  ,                                       !- Ceiling Height {m}
  346.03186535424,                        !- Volume {m3}
  ,                                       !- Floor Area {m2}
  ,                                       !- Zone Inside Convection Algorithm
  ,                                       !- Zone Outside Convection Algorithm
  ,                                       !- Zone Conditioning Equipment List Name
  {46f831bc-73b0-4954-b0f9-dbc204858a8e}, !- Zone Air Inlet Port List
  {9460baef-ac60-4f2b-accf-88a44e7446df}, !- Zone Air Exhaust Port List
  {6d9b2119-e1cf-4ed6-b40d-c9a101ada355}, !- Zone Air Node Name
  {74a9b4f7-b93e-4454-8aa6-e375cd55b6b1}, !- Zone Return Air Port List
  ,                                       !- Primary Daylighting Control Name
  ,                                       !- Fraction of Zone Controlled by Primary Daylighting Control
  ,                                       !- Secondary Daylighting Control Name
  ,                                       !- Fraction of Zone Controlled by Secondary Daylighting Control
  ,                                       !- Illuminance Map Name
  ,                                       !- Group Rendering Name
  {e136bb10-8112-4f3c-9f0d-cac5c5f7486e}, !- Thermostat Name
  No;                                     !- Use Ideal Air Loads

OS:Node,
  {c21d26d5-7098-4115-9363-7f1f45c823e2}, !- Handle
  Node 1,                                 !- Name
  {6d9b2119-e1cf-4ed6-b40d-c9a101ada355}, !- Inlet Port
  ;                                       !- Outlet Port

OS:Connection,
  {6d9b2119-e1cf-4ed6-b40d-c9a101ada355}, !- Handle
  {c29aca9f-5e9d-4a5d-96db-24d8345af976}, !- Source Object
  11,                                     !- Outlet Port
  {c21d26d5-7098-4115-9363-7f1f45c823e2}, !- Target Object
  2;                                      !- Inlet Port

OS:PortList,
  {46f831bc-73b0-4954-b0f9-dbc204858a8e}, !- Handle
  {c29aca9f-5e9d-4a5d-96db-24d8345af976}, !- HVAC Component
  {98a85acf-86de-4c76-8e06-a9e7ffbb19ce}; !- Port 1

OS:PortList,
  {9460baef-ac60-4f2b-accf-88a44e7446df}, !- Handle
  {c29aca9f-5e9d-4a5d-96db-24d8345af976}; !- HVAC Component

OS:PortList,
  {74a9b4f7-b93e-4454-8aa6-e375cd55b6b1}, !- Handle
  {c29aca9f-5e9d-4a5d-96db-24d8345af976}, !- HVAC Component
  {3c87add9-4b38-462f-b6bf-0806c134727c}; !- Port 1

OS:Sizing:Zone,
  {bc720f11-8662-4436-b1e1-94d492ceb683}, !- Handle
  {c29aca9f-5e9d-4a5d-96db-24d8345af976}, !- Zone or ZoneList Name
  SupplyAirTemperature,                   !- Zone Cooling Design Supply Air Temperature Input Method
  14,                                     !- Zone Cooling Design Supply Air Temperature {C}
  11.11,                                  !- Zone Cooling Design Supply Air Temperature Difference {deltaC}
  SupplyAirTemperature,                   !- Zone Heating Design Supply Air Temperature Input Method
  40,                                     !- Zone Heating Design Supply Air Temperature {C}
  11.11,                                  !- Zone Heating Design Supply Air Temperature Difference {deltaC}
  0.0085,                                 !- Zone Cooling Design Supply Air Humidity Ratio {kg-H2O/kg-air}
  0.008,                                  !- Zone Heating Design Supply Air Humidity Ratio {kg-H2O/kg-air}
  ,                                       !- Zone Heating Sizing Factor
  ,                                       !- Zone Cooling Sizing Factor
  DesignDay,                              !- Cooling Design Air Flow Method
  ,                                       !- Cooling Design Air Flow Rate {m3/s}
  ,                                       !- Cooling Minimum Air Flow per Zone Floor Area {m3/s-m2}
  ,                                       !- Cooling Minimum Air Flow {m3/s}
  ,                                       !- Cooling Minimum Air Flow Fraction
  DesignDay,                              !- Heating Design Air Flow Method
  ,                                       !- Heating Design Air Flow Rate {m3/s}
  ,                                       !- Heating Maximum Air Flow per Zone Floor Area {m3/s-m2}
  ,                                       !- Heating Maximum Air Flow {m3/s}
  ,                                       !- Heating Maximum Air Flow Fraction
  No,                                     !- Account for Dedicated Outdoor Air System
  NeutralSupplyAir,                       !- Dedicated Outdoor Air System Control Strategy
  autosize,                               !- Dedicated Outdoor Air Low Setpoint Temperature for Design {C}
  autosize,                               !- Dedicated Outdoor Air High Setpoint Temperature for Design {C}
  Sensible Load Only No Latent Load,      !- Zone Load Sizing Method
  HumidityRatioDifference,                !- Zone Latent Cooling Design Supply Air Humidity Ratio Input Method
  ,                                       !- Zone Dehumidification Design Supply Air Humidity Ratio {kgWater/kgDryAir}
  0.005,                                  !- Zone Cooling Design Supply Air Humidity Ratio Difference {kgWater/kgDryAir}
  HumidityRatioDifference,                !- Zone Latent Heating Design Supply Air Humidity Ratio Input Method
  ,                                       !- Zone Humidification Design Supply Air Humidity Ratio {kgWater/kgDryAir}
  0.005,                                  !- Zone Humidification Design Supply Air Humidity Ratio Difference {kgWater/kgDryAir}
  ,                                       !- Zone Humidistat Dehumidification Set Point Schedule Name
  ,                                       !- Zone Humidistat Humidification Set Point Schedule Name
  ,                                       !- Design Zone Air Distribution Effectiveness in Cooling Mode
  ,                                       !- Design Zone Air Distribution Effectiveness in Heating Mode
  ,                                       !- Design Zone Secondary Recirculation Fraction {dimensionless}
  ,                                       !- Design Minimum Zone Ventilation Efficiency {dimensionless}
  Coincident;                             !- Sizing Option

OS:ZoneHVAC:EquipmentList,
  {1bf2e725-cba8-4f9d-b1a0-d21fecfca551}, !- Handle
  Zone HVAC Equipment List 1,             !- Name
  {c29aca9f-5e9d-4a5d-96db-24d8345af976}, !- Thermal Zone
  ,                                       !- Load Distribution Scheme
  {b9903a76-0f48-458a-890d-706c498db260}, !- Zone Equipment 1
  1,                                      !- Zone Equipment Cooling Sequence 1
  1,                                      !- Zone Equipment Heating or No-Load Sequence 1
  {c4e93681-1e60-4174-a8f9-0c41ee6ac94e}, !- Zone Equipment Sequential Cooling Fraction Schedule Name 1
  {f942e72e-cc3f-4b83-a2e4-9a4221e9678c}; !- Zone Equipment Sequential Heating Fraction Schedule Name 1

OS:AdditionalProperties,
  {292d479f-0fca-47cd-9578-a309020fc394}, !- Handle
  {c29aca9f-5e9d-4a5d-96db-24d8345af976}, !- Object Name
  ObjectType,                             !- Feature Name 1
  String,                                 !- Feature Data Type 1
  conditioned space;                      !- Feature Value 1

OS:Space,
  {4643f96a-23dd-4078-b871-1c752219bfb9}, !- Handle
  conditioned space 1,                    !- Name
  ,                                       !- Space Type Name
  ,                                       !- Default Construction Set Name
  ,                                       !- Default Schedule Set Name
  ,                                       !- Direction of Relative North {deg}
  ,                                       !- X Origin {m}
  ,                                       !- Y Origin {m}
  ,                                       !- Z Origin {m}
  ,                                       !- Building Story Name
  {c29aca9f-5e9d-4a5d-96db-24d8345af976}, !- Thermal Zone Name
  ,                                       !- Part of Total Floor Area
  ,                                       !- Design Specification Outdoor Air Object Name
  ,                                       !- Building Unit Name
  346.03186535424;                        !- Volume {m3}

OS:Schedule:Ruleset,
  {081e142c-433e-45b7-a4e9-ab2c11204037}, !- Handle
  heating setpoint,                       !- Name
  {922959cd-a596-433e-8cd4-7922f20b672b}, !- Schedule Type Limits Name
  {d716dc90-3741-4784-a0b4-1f3fbd104e32}; !- Default Day Schedule Name

OS:Schedule:Day,
  {d716dc90-3741-4784-a0b4-1f3fbd104e32}, !- Handle
  heating setpoint default day,           !- Name
  {922959cd-a596-433e-8cd4-7922f20b672b}, !- Schedule Type Limits Name
  ,                                       !- Interpolate to Timestep
  24,                                     !- Hour 1
  0,                                      !- Minute 1
  0;                                      !- Value Until Time 1

OS:Schedule:Rule,
  {d2645b70-915b-4a68-b189-ec7fa607aee7}, !- Handle
  heating setpoint allday rule,           !- Name
  {081e142c-433e-45b7-a4e9-ab2c11204037}, !- Schedule Ruleset Name
  0,                                      !- Rule Order
  {51869aee-2775-4375-a270-e1e3228d019c}, !- Day Schedule Name
  Yes,                                    !- Apply Sunday
  Yes,                                    !- Apply Monday
  Yes,                                    !- Apply Tuesday
  Yes,                                    !- Apply Wednesday
  Yes,                                    !- Apply Thursday
  Yes,                                    !- Apply Friday
  Yes,                                    !- Apply Saturday
  DateRange,                              !- Date Specification Type
  1,                                      !- Start Month
  1,                                      !- Start Day
  12,                                     !- End Month
  31;                                     !- End Day

OS:Schedule:Day,
  {51869aee-2775-4375-a270-e1e3228d019c}, !- Handle
  heating setpoint day,                   !- Name
  {922959cd-a596-433e-8cd4-7922f20b672b}, !- Schedule Type Limits Name
  ,                                       !- Interpolate to Timestep
  24,                                     !- Hour 1
  0,                                      !- Minute 1
  20;                                     !- Value Until Time 1

OS:Schedule:Ruleset,
  {8b1e6846-df77-486d-8aff-dddccf634b2d}, !- Handle
  cooling setpoint,                       !- Name
  {922959cd-a596-433e-8cd4-7922f20b672b}, !- Schedule Type Limits Name
  {76c886bb-8af7-40d1-a703-1e4511ab9be3}; !- Default Day Schedule Name

OS:Schedule:Day,
  {76c886bb-8af7-40d1-a703-1e4511ab9be3}, !- Handle
  cooling setpoint default day,           !- Name
  {922959cd-a596-433e-8cd4-7922f20b672b}, !- Schedule Type Limits Name
  ,                                       !- Interpolate to Timestep
  24,                                     !- Hour 1
  0,                                      !- Minute 1
  0;                                      !- Value Until Time 1

OS:Schedule:Rule,
  {653ef5ab-f5e0-4b9f-8193-b883fc998e83}, !- Handle
  cooling setpoint allday rule,           !- Name
  {8b1e6846-df77-486d-8aff-dddccf634b2d}, !- Schedule Ruleset Name
  0,                                      !- Rule Order
  {b487fcd6-418b-48db-8f83-02e85a727030}, !- Day Schedule Name
  Yes,                                    !- Apply Sunday
  Yes,                                    !- Apply Monday
  Yes,                                    !- Apply Tuesday
  Yes,                                    !- Apply Wednesday
  Yes,                                    !- Apply Thursday
  Yes,                                    !- Apply Friday
  Yes,                                    !- Apply Saturday
  DateRange,                              !- Date Specification Type
  1,                                      !- Start Month
  1,                                      !- Start Day
  12,                                     !- End Month
  31;                                     !- End Day

OS:Schedule:Day,
  {b487fcd6-418b-48db-8f83-02e85a727030}, !- Handle
  cooling setpoint day,                   !- Name
  {922959cd-a596-433e-8cd4-7922f20b672b}, !- Schedule Type Limits Name
  ,                                       !- Interpolate to Timestep
  24,                                     !- Hour 1
  0,                                      !- Minute 1
  25.5555555555556;                       !- Value Until Time 1

OS:ThermostatSetpoint:DualSetpoint,
  {e136bb10-8112-4f3c-9f0d-cac5c5f7486e}, !- Handle
  conditioned space temperature setpoint, !- Name
  {081e142c-433e-45b7-a4e9-ab2c11204037}, !- Heating Setpoint Temperature Schedule Name
  {8b1e6846-df77-486d-8aff-dddccf634b2d}, !- Cooling Setpoint Temperature Schedule Name
  0;                                      !- Temperature Difference Between Cutout And Setpoint {deltaC}

OS:ScheduleTypeLimits,
  {922959cd-a596-433e-8cd4-7922f20b672b}, !- Handle
  Temperature,                            !- Name
  ,                                       !- Lower Limit Value
  ,                                       !- Upper Limit Value
  Continuous,                             !- Numeric Type
  Temperature;                            !- Unit Type

OS:Surface,
  {c4b65a76-2682-4b1a-b681-53b0d0740b1d}, !- Handle
  Roof1,                                  !- Name
  RoofCeiling,                            !- Surface Type
  {1743fe0e-126a-4592-921c-eecdd7dbdd3d}, !- Construction Name
  {4643f96a-23dd-4078-b871-1c752219bfb9}, !- Space Name
  Outdoors,                               !- Outside Boundary Condition
  ,                                       !- Outside Boundary Condition Object
  SunExposed,                             !- Sun Exposure
  WindExposed,                            !- Wind Exposure
  ,                                       !- View Factor to Ground
  ,                                       !- Number of Vertices
  -27.1507941683368, 33.2208099683368, 2.4384, !- X,Y,Z Vertex 1 {m}
  -27.1507941683368, 25.2543851312596, 6.42161241853859, !- X,Y,Z Vertex 2 {m}
  -18.2440604316632, 25.2543851312596, 6.42161241853859, !- X,Y,Z Vertex 3 {m}
  -18.2440604316632, 33.2208099683368, 2.4384; !- X,Y,Z Vertex 4 {m}

OS:AdditionalProperties,
  {a6cef688-4912-41aa-95ed-5c091ef1f401}, !- Handle
  {c4b65a76-2682-4b1a-b681-53b0d0740b1d}, !- Object Name
  Length,                                 !- Feature Name 1
  Double,                                 !- Feature Data Type 1
  29.221567377538118,                     !- Feature Value 1
  Width,                                  !- Feature Name 2
  Double,                                 !- Feature Data Type 2
  29.221567377538118,                     !- Feature Value 2
  Azimuth,                                !- Feature Name 3
  Integer,                                !- Feature Data Type 3
  0,                                      !- Feature Value 3
  Tilt,                                   !- Feature Name 4
  Double,                                 !- Feature Data Type 4
  0.5,                                    !- Feature Value 4
  SurfaceType,                            !- Feature Name 5
  String,                                 !- Feature Data Type 5
  Roof;                                   !- Feature Value 5

OS:Material,
  {275b773c-7831-4083-9c80-4c0dfea8a172}, !- Handle
  asphalt or fiberglass shingles,         !- Name
  Rough,                                  !- Roughness
  0.00635,                                !- Thickness {m}
  0.162714,                               !- Conductivity {W/m-K}
  1121.4,                                 !- Density {kg/m3}
  1465.45,                                !- Specific Heat {J/kg-K}
  0.9,                                    !- Thermal Absorptance
  0.85,                                   !- Solar Absorptance
  0.85;                                   !- Visible Absorptance

OS:Material,
  {082efd4f-914f-4d63-90f2-f360ee1b910f}, !- Handle
  roof stud and cavity,                   !- Name
  Rough,                                  !- Roughness
  0.0889,                                 !- Thickness {m}
  0.468249472857624,                      !- Conductivity {W/m-K}
  50.32683,                               !- Density {kg/m3}
  1063.80987585548,                       !- Specific Heat {J/kg-K}
  0.9,                                    !- Thermal Absorptance
  0.7,                                    !- Solar Absorptance
  0.7;                                    !- Visible Absorptance

OS:Material,
  {0529b573-0049-4037-bcbe-514599f82ea9}, !- Handle
  gypsum board,                           !- Name
  Rough,                                  !- Roughness
  0.00254,                                !- Thickness {m}
  0.1602906,                              !- Conductivity {W/m-K}
  801,                                    !- Density {kg/m3}
  837.4,                                  !- Specific Heat {J/kg-K}
  0.9,                                    !- Thermal Absorptance
  0.6,                                    !- Solar Absorptance
  0.6;                                    !- Visible Absorptance

OS:Construction,
  {1743fe0e-126a-4592-921c-eecdd7dbdd3d}, !- Handle
  Roof1 construction,                     !- Name
  ,                                       !- Surface Rendering Name
  {275b773c-7831-4083-9c80-4c0dfea8a172}, !- Layer 1
  {082efd4f-914f-4d63-90f2-f360ee1b910f}, !- Layer 2
  {0529b573-0049-4037-bcbe-514599f82ea9}; !- Layer 3

OS:Surface,
  {8a58a007-ea36-4603-a05b-425ec25a697b}, !- Handle
  Roof2,                                  !- Name
  RoofCeiling,                            !- Surface Type
  {2b08005e-4ba4-43e1-974f-df3cd2727525}, !- Construction Name
  {4643f96a-23dd-4078-b871-1c752219bfb9}, !- Space Name
  Outdoors,                               !- Outside Boundary Condition
  ,                                       !- Outside Boundary Condition Object
  SunExposed,                             !- Sun Exposure
  WindExposed,                            !- Wind Exposure
  ,                                       !- View Factor to Ground
  ,                                       !- Number of Vertices
  -24.3140762316632, -33.2208099683368, 2.4384, !- X,Y,Z Vertex 1 {m}
  -24.3140762316632, -25.2543851312596, 6.42161241853859, !- X,Y,Z Vertex 2 {m}
  -33.2208099683368, -25.2543851312596, 6.42161241853859, !- X,Y,Z Vertex 3 {m}
  -33.2208099683368, -33.2208099683368, 2.4384; !- X,Y,Z Vertex 4 {m}

OS:AdditionalProperties,
  {b7ecd576-3eba-4e86-8bcc-505eb57bd3b6}, !- Handle
  {8a58a007-ea36-4603-a05b-425ec25a697b}, !- Object Name
  Length,                                 !- Feature Name 1
  Double,                                 !- Feature Data Type 1
  29.221567377538118,                     !- Feature Value 1
  Width,                                  !- Feature Name 2
  Double,                                 !- Feature Data Type 2
  29.221567377538118,                     !- Feature Value 2
  Azimuth,                                !- Feature Name 3
  Integer,                                !- Feature Data Type 3
  180,                                    !- Feature Value 3
  Tilt,                                   !- Feature Name 4
  Double,                                 !- Feature Data Type 4
  0.5,                                    !- Feature Value 4
  SurfaceType,                            !- Feature Name 5
  String,                                 !- Feature Data Type 5
  Roof;                                   !- Feature Value 5

OS:Construction,
  {2b08005e-4ba4-43e1-974f-df3cd2727525}, !- Handle
  Roof2 construction,                     !- Name
  ,                                       !- Surface Rendering Name
  {275b773c-7831-4083-9c80-4c0dfea8a172}, !- Layer 1
  {082efd4f-914f-4d63-90f2-f360ee1b910f}, !- Layer 2
  {0529b573-0049-4037-bcbe-514599f82ea9}; !- Layer 3

OS:Surface,
  {b9c2ea4d-6d33-4284-be7d-6eba005c6303}, !- Handle
  Wall1,                                  !- Name
  Wall,                                   !- Surface Type
  {8f6e1ad9-be54-4c64-8bca-9d0fa39b15e3}, !- Construction Name
  {4643f96a-23dd-4078-b871-1c752219bfb9}, !- Space Name
  Outdoors,                               !- Outside Boundary Condition
  ,                                       !- Outside Boundary Condition Object
  SunExposed,                             !- Sun Exposure
  WindExposed,                            !- Wind Exposure
  ,                                       !- View Factor to Ground
  ,                                       !- Number of Vertices
  -32.2917795683368, 33.2208099683368, 0, !- X,Y,Z Vertex 1 {m}
  -32.2917795683368, 33.2208099683368, 4.8768, !- X,Y,Z Vertex 2 {m}
  -28.0798245683368, 33.2208099683368, 4.8768, !- X,Y,Z Vertex 3 {m}
  -28.0798245683368, 33.2208099683368, 0; !- X,Y,Z Vertex 4 {m}

OS:AdditionalProperties,
  {5eba0fb5-2710-41f1-a635-d094f350700f}, !- Handle
  {b9c2ea4d-6d33-4284-be7d-6eba005c6303}, !- Object Name
  Length,                                 !- Feature Name 1
  Double,                                 !- Feature Data Type 1
  13.81875,                               !- Feature Value 1
  Azimuth,                                !- Feature Name 2
  Integer,                                !- Feature Data Type 2
  0,                                      !- Feature Value 2
  Tilt,                                   !- Feature Name 3
  Double,                                 !- Feature Data Type 3
  90,                                     !- Feature Value 3
  SurfaceType,                            !- Feature Name 4
  String,                                 !- Feature Data Type 4
  Wall;                                   !- Feature Value 4

OS:Material,
  {679933e3-6499-454b-884d-65d7e1d5efc8}, !- Handle
  wood siding,                            !- Name
  Rough,                                  !- Roughness
  0.0254,                                 !- Thickness {m}
  0.1024175,                              !- Conductivity {W/m-K}
  544.68,                                 !- Density {kg/m3}
  1172.36,                                !- Specific Heat {J/kg-K}
  0.9,                                    !- Thermal Absorptance
  0.7,                                    !- Solar Absorptance
  0.7;                                    !- Visible Absorptance

OS:Material,
  {2b7f8846-1f7d-43b6-afeb-a5c487edfe0f}, !- Handle
  osb sheathing 0.5 in.,                  !- Name
  Rough,                                  !- Roughness
  0.0127,                                 !- Thickness {m}
  0.1154577,                              !- Conductivity {W/m-K}
  512.64,                                 !- Density {kg/m3}
  1214.23,                                !- Specific Heat {J/kg-K}
  0.9,                                    !- Thermal Absorptance
  0.7,                                    !- Solar Absorptance
  0.7;                                    !- Visible Absorptance

OS:Material,
  {2b0d3a09-bae9-48b6-8e89-4c0571488c89}, !- Handle
  wall stud and cavity,                   !- Name
  Rough,                                  !- Roughness
  0.1397,                                 !- Thickness {m}
  0.0929021674204099,                     !- Conductivity {W/m-K}
  139.0536,                               !- Density {kg/m3}
  1170.23755760369,                       !- Specific Heat {J/kg-K}
  0.9,                                    !- Thermal Absorptance
  0.7,                                    !- Solar Absorptance