
OS:Version,
  {58f8a0f1-0903-43ef-8b5b-c9614e7837e2}, !- Handle
  3.10.0;                                 !- Version Identifier

OS:SimulationControl,
  {477c052d-28d8-4955-bd25-4aabd4c86827}, !- Handle
  ,                                       !- Do Zone Sizing Calculation
  ,                                       !- Do System Sizing Calculation
  ,                                       !- Do Plant Sizing Calculation
  No;                                     !- Run Simulation for Sizing Periods

OS:Timestep,
  {f0ba9982-e807-49e6-af1a-1f7b1248baf4}, !- Handle
  1;                                      !- Number of Timesteps per Hour

OS:ShadowCalculation,
  {f1042306-22c7-4ea7-b13a-11c90c039bf0}, !- Handle
  PolygonClipping,                        !- Shading Calculation Method
  ,                                       !- Shading Calculation Update Frequency Method
  20,                                     !- Shading Calculation Update Frequency
  200,                                    !- Maximum Figures in Shadow Overlap Calculations
  ,                                       !- Polygon Clipping Algorithm
  512,                                    !- Pixel Counting Resolution
  ,                                       !- Sky Diffuse Modeling Algorithm
  No,                                     !- Output External Shading Calculation Results
  No,                                     !- Disable Self-Shading Within Shading Zone Groups
  No;                                     !- Disable Self-Shading From Shading Zone Groups to Other Zones

OS:SurfaceConvectionAlgorithm:Outside,
  {815b6c59-6730-4f8f-a7cb-81c89602ffb4}, !- Handle
  DOE-2;                                  !- Algorithm

OS:SurfaceConvectionAlgorithm:Inside,
  {05331256-af3c-4801-bd65-da87e8893472}, !- Handle
  TARP;                                   !- Algorithm

OS:ZoneCapacitanceMultiplier:ResearchSpecial,
  {2d6e021d-8b49-45e9-8626-93e055279d0d}, !- Handle
  7,                                      !- Temperature Capacity Multiplier
  15,                                     !- Humidity Capacity Multiplier
  ;                                       !- Carbon Dioxide Capacity Multiplier

OS:ConvergenceLimits,
  {2b17e935-0022-49be-903c-29d8ae873e80}, !- Handle
  0;                                      !- Minimum System Timestep {minutes}

OS:RunPeriod,
  {0a046758-b1b3-4452-b6be-7774d1e6cf59}, !- Handle
  Run Period 1,                           !- Name
  1,                                      !- Begin Month
  1,                                      !- Begin Day of Month
  12,                                     !- End Month
  31,                                     !- End Day of Month
  ,                                       !- Use Weather File Holidays and Special Days
  ,                                       !- Use Weather File Daylight Saving Period
  ,                                       !- Apply Weekend Holiday Rule
  ,                                       !- Use Weather File Rain Indicators
  ,                                       !- Use Weather File Snow Indicators
  ;                                       !- Number of Times Runperiod to be Repeated

OS:PerformancePrecisionTradeoffs,
  {32dcfab1-75b9-4954-b745-601cdf4827c6}, !- Handle
  ,                                       !- Use Coil Direct Solutions
  CarrollMRT;                             !- Zone Radiant Exchange Algorithm

OS:WeatherFile,
  {fbcc3e21-6091-45de-9d94-499322ecafac}, !- Handle
  Buffalo Niagara Intl Ap,                !- City
  NY,                                     !- State Province Region
  USA,                                    !- Country
  TMY3,                                   !- Data Source
  725280,                                 !- WMO Number
  42.93,                                  !- Latitude {deg}
  -78.73,                                 !- Longitude {deg}
  -5,                                     !- Time Zone {hr}
  215,                                    !- Elevation {m}
  /Users/nmoore/github/urbanopt-example-geojson-project/example_project/weather/USA_NY_Buffalo-Greater.Buffalo.Intl.AP.725280_TMY3.epw, !- Url
  6B50E0FF,                               !- Checksum
  ,                                       !- Start Date Actual Year
  Sunday;                                 !- Start Day of Week

OS:YearDescription,
  {36f7de2b-e30f-4358-804b-3a06ca1e9c88}, !- Handle
  2007,                                   !- Calendar Year
  ,                                       !- Day of Week for Start Day
  ;                                       !- Is Leap Year

OS:Site,
  {161f436d-602e-4e24-add0-ec30bcf95e8d}, !- Handle
  Buffalo Niagara Intl Ap_NY,             !- Name
  42.93,                                  !- Latitude {deg}
  -78.73,                                 !- Longitude {deg}
  -5,                                     !- Time Zone {hr}
  215,                                    !- Elevation {m}
  Suburbs,                                !- Terrain
  Yes;                                    !- Keep Site Location Information

OS:RunPeriodControl:DaylightSavingTime,
  {f90c0639-cf13-4f23-8e0d-ed40608b0b30}, !- Handle
  Mar 12,                                 !- Start Date
  Nov 5;                                  !- End Date

OS:Site:GroundTemperature:Shallow,
  {7dca5b4f-8926-4e64-ad10-ee2ddca44bbd}, !- Handle
  4.30207395723828,                       !- January Surface Ground Temperature {C}
  2.29327249652502,                       !- February Surface Ground Temperature {C}
  2.13240047156047,                       !- March Surface Ground Temperature {C}
  3.08567940719286,                       !- April Surface Ground Temperature {C}
  6.91256312497526,                       !- May Surface Ground Temperature {C}
  10.7216195949507,                       !- June Surface Ground Temperature {C}
  14.0238679822574,                       !- July Surface Ground Temperature {C}
  16.1157611184724,                       !- August Surface Ground Temperature {C}
  16.2934789303462,                       !- September Surface Ground Temperature {C}
  14.5920754632847,                       !- October Surface Ground Temperature {C}
  11.374036348653,                        !- November Surface Ground Temperature {C}
  7.68182621661674;                       !- December Surface Ground Temperature {C}

OS:ThermalZone,
  {7750278e-5ef9-4165-b65c-ff727e10d80a}, !- Handle
  conditioned space,                      !- Name
  1,                                      !- Multiplier
  ,                                       !- Ceiling Height {m}
  346.03186535424,                        !- Volume {m3}
  ,                                       !- Floor Area {m2}
  ,                                       !- Zone Inside Convection Algorithm
  ,                                       !- Zone Outside Convection Algorithm
  ,                                       !- Zone Conditioning Equipment List Name
  {7a6a5fa6-2536-44d9-8167-f2da1f169c3e}, !- Zone Air Inlet Port List
  {764a4d8a-6d0f-4577-b080-e92c505ca05b}, !- Zone Air Exhaust Port List
  {1e84c1be-182d-46d1-bcad-fcb11a078acd}, !- Zone Air Node Name
  {0ad805d1-06ff-4082-8332-ad6887c7dca7}, !- Zone Return Air Port List
  ,                                       !- Primary Daylighting Control Name
  ,                                       !- Fraction of Zone Controlled by Primary Daylighting Control
  ,                                       !- Secondary Daylighting Control Name
  ,                                       !- Fraction of Zone Controlled by Secondary Daylighting Control
  ,                                       !- Illuminance Map Name
  ,                                       !- Group Rendering Name
  {4c5130b0-c8e8-4078-aa1a-55ac358313e3}, !- Thermostat Name
  No;                                     !- Use Ideal Air Loads

OS:Node,
  {2fb958bd-5c84-4c09-a1bf-ff543ded5313}, !- Handle
  Node 1,                                 !- Name
  {1e84c1be-182d-46d1-bcad-fcb11a078acd}, !- Inlet Port
  ;                                       !- Outlet Port

OS:Connection,
  {1e84c1be-182d-46d1-bcad-fcb11a078acd}, !- Handle
  {7750278e-5ef9-4165-b65c-ff727e10d80a}, !- Source Object
  11,                                     !- Outlet Port
  {2fb958bd-5c84-4c09-a1bf-ff543ded5313}, !- Target Object
  2;                                      !- Inlet Port

OS:PortList,
  {7a6a5fa6-2536-44d9-8167-f2da1f169c3e}, !- Handle
  {7750278e-5ef9-4165-b65c-ff727e10d80a}, !- HVAC Component
  {837e508d-172b-458c-bb9d-bb8a6371bbd4}; !- Port 1

OS:PortList,
  {764a4d8a-6d0f-4577-b080-e92c505ca05b}, !- Handle
  {7750278e-5ef9-4165-b65c-ff727e10d80a}; !- HVAC Component

OS:PortList,
  {0ad805d1-06ff-4082-8332-ad6887c7dca7}, !- Handle
  {7750278e-5ef9-4165-b65c-ff727e10d80a}, !- HVAC Component
  {7ca9b449-7142-4c9f-890a-e3c7f8792af5}; !- Port 1

OS:Sizing:Zone,
  {cee13e27-0c19-4337-b751-b40c2af22329}, !- Handle
  {7750278e-5ef9-4165-b65c-ff727e10d80a}, !- Zone or ZoneList Name
  SupplyAirTemperature,                   !- Zone Cooling Design Supply Air Temperature Input Method
  14,                                     !- Zone Cooling Design Supply Air Temperature {C}
  11.11,                                  !- Zone Cooling Design Supply Air Temperature Difference {deltaC}
  SupplyAirTemperature,                   !- Zone Heating Design Supply Air Temperature Input Method
  40,                                     !- Zone Heating Design Supply Air Temperature {C}
  11.11,                                  !- Zone Heating Design Supply Air Temperature Difference {deltaC}
  0.0085,                                 !- Zone Cooling Design Supply Air Humidity Ratio {kg-H2O/kg-air}
  0.008,                                  !- Zone Heating Design Supply Air Humidity Ratio {kg-H2O/kg-air}
  ,                                       !- Zone Heating Sizing Factor
  ,                                       !- Zone Cooling Sizing Factor
  DesignDay,                              !- Cooling Design Air Flow Method
  ,                                       !- Cooling Design Air Flow Rate {m3/s}
  ,                                       !- Cooling Minimum Air Flow per Zone Floor Area {m3/s-m2}
  ,                                       !- Cooling Minimum Air Flow {m3/s}
  ,                                       !- Cooling Minimum Air Flow Fraction
  DesignDay,                              !- Heating Design Air Flow Method
  ,                                       !- Heating Design Air Flow Rate {m3/s}
  ,                                       !- Heating Maximum Air Flow per Zone Floor Area {m3/s-m2}
  ,                                       !- Heating Maximum Air Flow {m3/s}
  ,                                       !- Heating Maximum Air Flow Fraction
  No,                                     !- Account for Dedicated Outdoor Air System
  NeutralSupplyAir,                       !- Dedicated Outdoor Air System Control Strategy
  autosize,                               !- Dedicated Outdoor Air Low Setpoint Temperature for Design {C}
  autosize,                               !- Dedicated Outdoor Air High Setpoint Temperature for Design {C}
  Sensible Load Only No Latent Load,      !- Zone Load Sizing Method
  HumidityRatioDifference,                !- Zone Latent Cooling Design Supply Air Humidity Ratio Input Method
  ,                                       !- Zone Dehumidification Design Supply Air Humidity Ratio {kgWater/kgDryAir}
  0.005,                                  !- Zone Cooling Design Supply Air Humidity Ratio Difference {kgWater/kgDryAir}
  HumidityRatioDifference,                !- Zone Latent Heating Design Supply Air Humidity Ratio Input Method
  ,                                       !- Zone Humidification Design Supply Air Humidity Ratio {kgWater/kgDryAir}
  0.005,                                  !- Zone Humidification Design Supply Air Humidity Ratio Difference {kgWater/kgDryAir}
  ,                                       !- Zone Humidistat Dehumidification Set Point Schedule Name
  ,                                       !- Zone Humidistat Humidification Set Point Schedule Name
  ,                                       !- Design Zone Air Distribution Effectiveness in Cooling Mode
  ,                                       !- Design Zone Air Distribution Effectiveness in Heating Mode
  ,                                       !- Design Zone Secondary Recirculation Fraction {dimensionless}
  ,                                       !- Design Minimum Zone Ventilation Efficiency {dimensionless}
  Coincident;                             !- Sizing Option

OS:ZoneHVAC:EquipmentList,
  {07b9e7e5-3b60-4df3-93de-a429186b3e54}, !- Handle
  Zone HVAC Equipment List 1,             !- Name
  {7750278e-5ef9-4165-b65c-ff727e10d80a}, !- Thermal Zone
  ,                                       !- Load Distribution Scheme
  {5e058a2c-666d-49d1-aa95-45b63e7f347d}, !- Zone Equipment 1
  1,                                      !- Zone Equipment Cooling Sequence 1
  1,                                      !- Zone Equipment Heating or No-Load Sequence 1
  {dd411026-034e-406d-8d49-0016b47d8078}, !- Zone Equipment Sequential Cooling Fraction Schedule Name 1
  {03065dd9-1f9c-4007-bd8e-a6da61f526ad}; !- Zone Equipment Sequential Heating Fraction Schedule Name 1

OS:AdditionalProperties,
  {4eb49308-9198-4bea-a692-6bb049e2f3b4}, !- Handle
  {7750278e-5ef9-4165-b65c-ff727e10d80a}, !- Object Name
  ObjectType,                             !- Feature Name 1
  String,                                 !- Feature Data Type 1
  conditioned space;                      !- Feature Value 1

OS:Space,
  {bfe3e407-5317-4bbe-b031-7aa651868884}, !- Handle
  conditioned space 1,                    !- Name
  ,                                       !- Space Type Name
  ,                                       !- Default Construction Set Name
  ,                                       !- Default Schedule Set Name
  ,                                       !- Direction of Relative North {deg}
  ,                                       !- X Origin {m}
  ,                                       !- Y Origin {m}
  ,                                       !- Z Origin {m}
  ,                                       !- Building Story Name
  {7750278e-5ef9-4165-b65c-ff727e10d80a}, !- Thermal Zone Name
  ,                                       !- Part of Total Floor Area
  ,                                       !- Design Specification Outdoor Air Object Name
  ,                                       !- Building Unit Name
  346.03186535424;                        !- Volume {m3}

OS:Schedule:Ruleset,
  {7474daca-ab5a-4ad9-95d5-d77cf2ea66dc}, !- Handle
  heating setpoint,                       !- Name
  {7279b196-5035-4933-9698-0a2b40b2f772}, !- Schedule Type Limits Name
  {ca85a6e4-0888-4f29-8922-6d6992bf02da}; !- Default Day Schedule Name

OS:Schedule:Day,
  {ca85a6e4-0888-4f29-8922-6d6992bf02da}, !- Handle
  heating setpoint default day,           !- Name
  {7279b196-5035-4933-9698-0a2b40b2f772}, !- Schedule Type Limits Name
  ,                                       !- Interpolate to Timestep
  24,                                     !- Hour 1
  0,                                      !- Minute 1
  0;                                      !- Value Until Time 1

OS:Schedule:Rule,
  {f06ad14d-e75e-4409-99a8-5ec02327a6e2}, !- Handle
  heating setpoint allday rule,           !- Name
  {7474daca-ab5a-4ad9-95d5-d77cf2ea66dc}, !- Schedule Ruleset Name
  0,                                      !- Rule Order
  {af24fee5-ff1c-4143-9c7d-2a955e813cd7}, !- Day Schedule Name
  Yes,                                    !- Apply Sunday
  Yes,                                    !- Apply Monday
  Yes,                                    !- Apply Tuesday
  Yes,                                    !- Apply Wednesday
  Yes,                                    !- Apply Thursday
  Yes,                                    !- Apply Friday
  Yes,                                    !- Apply Saturday
  DateRange,                              !- Date Specification Type
  1,                                      !- Start Month
  1,                                      !- Start Day
  12,                                     !- End Month
  31;                                     !- End Day

OS:Schedule:Day,
  {af24fee5-ff1c-4143-9c7d-2a955e813cd7}, !- Handle
  heating setpoint day,                   !- Name
  {7279b196-5035-4933-9698-0a2b40b2f772}, !- Schedule Type Limits Name
  ,                                       !- Interpolate to Timestep
  24,                                     !- Hour 1
  0,                                      !- Minute 1
  20;                                     !- Value Until Time 1

OS:Schedule:Ruleset,
  {e5cf8266-c05f-4cda-b5f9-debb61deacfe}, !- Handle
  cooling setpoint,                       !- Name
  {7279b196-5035-4933-9698-0a2b40b2f772}, !- Schedule Type Limits Name
  {48709c18-fa44-4e5f-b6cc-85ac426dab3a}; !- Default Day Schedule Name

OS:Schedule:Day,
  {48709c18-fa44-4e5f-b6cc-85ac426dab3a}, !- Handle
  cooling setpoint default day,           !- Name
  {7279b196-5035-4933-9698-0a2b40b2f772}, !- Schedule Type Limits Name
  ,                                       !- Interpolate to Timestep
  24,                                     !- Hour 1
  0,                                      !- Minute 1
  0;                                      !- Value Until Time 1

OS:Schedule:Rule,
  {4b3cb3a9-0db1-48a0-b2ff-8fe1e0cc9ca4}, !- Handle
  cooling setpoint allday rule,           !- Name
  {e5cf8266-c05f-4cda-b5f9-debb61deacfe}, !- Schedule Ruleset Name
  0,                                      !- Rule Order
  {d4847112-e6ec-4195-8af5-27fcb349121f}, !- Day Schedule Name
  Yes,                                    !- Apply Sunday
  Yes,                                    !- Apply Monday
  Yes,                                    !- Apply Tuesday
  Yes,                                    !- Apply Wednesday
  Yes,                                    !- Apply Thursday
  Yes,                                    !- Apply Friday
  Yes,                                    !- Apply Saturday
  DateRange,                              !- Date Specification Type
  1,                                      !- Start Month
  1,                                      !- Start Day
  12,                                     !- End Month
  31;                                     !- End Day

OS:Schedule:Day,
  {d4847112-e6ec-4195-8af5-27fcb349121f}, !- Handle
  cooling setpoint day,                   !- Name
  {7279b196-5035-4933-9698-0a2b40b2f772}, !- Schedule Type Limits Name
  ,                                       !- Interpolate to Timestep
  24,                                     !- Hour 1
  0,                                      !- Minute 1
  25.5555555555556;                       !- Value Until Time 1

OS:ThermostatSetpoint:DualSetpoint,
  {4c5130b0-c8e8-4078-aa1a-55ac358313e3}, !- Handle
  conditioned space temperature setpoint, !- Name
  {7474daca-ab5a-4ad9-95d5-d77cf2ea66dc}, !- Heating Setpoint Temperature Schedule Name
  {e5cf8266-c05f-4cda-b5f9-debb61deacfe}, !- Cooling Setpoint Temperature Schedule Name
  0;                                      !- Temperature Difference Between Cutout And Setpoint {deltaC}

OS:ScheduleTypeLimits,
  {7279b196-5035-4933-9698-0a2b40b2f772}, !- Handle
  Temperature,                            !- Name
  ,                                       !- Lower Limit Value
  ,                                       !- Upper Limit Value
  Continuous,                             !- Numeric Type
  Temperature;                            !- Unit Type

OS:Surface,
  {d545b7cb-c527-416b-a05d-e9627c5c8e53}, !- Handle
  Roof1,                                  !- Name
  RoofCeiling,                            !- Surface Type
  {8293afe2-5b30-4cbb-b266-f4d7470d4d2c}, !- Construction Name
  {bfe3e407-5317-4bbe-b031-7aa651868884}, !- Space Name
  Outdoors,                               !- Outside Boundary Condition
  ,                                       !- Outside Boundary Condition Object
  SunExposed,                             !- Sun Exposure
  WindExposed,                            !- Wind Exposure
  ,                                       !- View Factor to Ground
  ,                                       !- Number of Vertices
  -27.1507941683368, 33.2208099683368, 2.4384, !- X,Y,Z Vertex 1 {m}
  -27.1507941683368, 25.2543851312596, 6.42161241853859, !- X,Y,Z Vertex 2 {m}
  -18.2440604316632, 25.2543851312596, 6.42161241853859, !- X,Y,Z Vertex 3 {m}
  -18.2440604316632, 33.2208099683368, 2.4384; !- X,Y,Z Vertex 4 {m}

OS:AdditionalProperties,
  {5eeb804c-490a-418e-8ce8-c104b0e00b5f}, !- Handle
  {d545b7cb-c527-416b-a05d-e9627c5c8e53}, !- Object Name
  Length,                                 !- Feature Name 1
  Double,                                 !- Feature Data Type 1
  29.221567377538118,                     !- Feature Value 1
  Width,                                  !- Feature Name 2
  Double,                                 !- Feature Data Type 2
  29.221567377538118,                     !- Feature Value 2
  Azimuth,                                !- Feature Name 3
  Integer,                                !- Feature Data Type 3
  0,                                      !- Feature Value 3
  Tilt,                                   !- Feature Name 4
  Double,                                 !- Feature Data Type 4
  0.5,                                    !- Feature Value 4
  SurfaceType,                            !- Feature Name 5
  String,                                 !- Feature Data Type 5
  Roof;                                   !- Feature Value 5

OS:Material,
  {c333d62a-fcb8-4917-bff9-739139f8c773}, !- Handle
  asphalt or fiberglass shingles,         !- Name
  Rough,                                  !- Roughness
  0.00635,                                !- Thickness {m}
  0.162714,                               !- Conductivity {W/m-K}
  1121.4,                                 !- Density {kg/m3}
  1465.45,                                !- Specific Heat {J/kg-K}
  0.9,                                    !- Thermal Absorptance
  0.85,                                   !- Solar Absorptance
  0.85;                                   !- Visible Absorptance

OS:Material,
  {78aa0f37-68d4-4b40-a1f3-8a4f473cfcce}, !- Handle
  roof stud and cavity,                   !- Name
  Rough,                                  !- Roughness
  0.0889,                                 !- Thickness {m}
  0.468249472857624,                      !- Conductivity {W/m-K}
  50.32683,                               !- Density {kg/m3}
  1063.80987585548,                       !- Specific Heat {J/kg-K}
  0.9,                                    !- Thermal Absorptance
  0.7,                                    !- Solar Absorptance
  0.7;                                    !- Visible Absorptance

OS:Material,
  {42b81222-7348-4320-b36b-9013125002c3}, !- Handle
  gypsum board,                           !- Name
  Rough,                                  !- Roughness
  0.00254,                                !- Thickness {m}
  0.1602906,                              !- Conductivity {W/m-K}
  801,                                    !- Density {kg/m3}
  837.4,                                  !- Specific Heat {J/kg-K}
  0.9,                                    !- Thermal Absorptance
  0.6,                                    !- Solar Absorptance
  0.6;                                    !- Visible Absorptance

OS:Construction,
  {8293afe2-5b30-4cbb-b266-f4d7470d4d2c}, !- Handle
  Roof1 construction,                     !- Name
  ,                                       !- Surface Rendering Name
  {c333d62a-fcb8-4917-bff9-739139f8c773}, !- Layer 1
  {78aa0f37-68d4-4b40-a1f3-8a4f473cfcce}, !- Layer 2
  {42b81222-7348-4320-b36b-9013125002c3}; !- Layer 3

OS:Surface,
  {4aa9618b-208e-4a8e-8168-3673fc8534bf}, !- Handle
  Roof2,                                  !- Name
  RoofCeiling,                            !- Surface Type
  {6cb97303-a1a6-4d39-ab35-88875022b24d}, !- Construction Name
  {bfe3e407-5317-4bbe-b031-7aa651868884}, !- Space Name
  Outdoors,                               !- Outside Boundary Condition
  ,                                       !- Outside Boundary Condition Object
  SunExposed,                             !- Sun Exposure
  WindExposed,                            !- Wind Exposure
  ,                                       !- View Factor to Ground
  ,                                       !- Number of Vertices
  -24.3140762316632, -33.2208099683368, 2.4384, !- X,Y,Z Vertex 1 {m}
  -24.3140762316632, -25.2543851312596, 6.42161241853859, !- X,Y,Z Vertex 2 {m}
  -33.2208099683368, -25.2543851312596, 6.42161241853859, !- X,Y,Z Vertex 3 {m}
  -33.2208099683368, -33.2208099683368, 2.4384; !- X,Y,Z Vertex 4 {m}

OS:AdditionalProperties,
  {95afd3d1-d69c-43c2-8f03-7f1d0d380fc0}, !- Handle
  {4aa9618b-208e-4a8e-8168-3673fc8534bf}, !- Object Name
  Length,                                 !- Feature Name 1
  Double,                                 !- Feature Data Type 1
  29.221567377538118,                     !- Feature Value 1
  Width,                                  !- Feature Name 2
  Double,                                 !- Feature Data Type 2
  29.221567377538118,                     !- Feature Value 2
  Azimuth,                                !- Feature Name 3
  Integer,                                !- Feature Data Type 3
  180,                                    !- Feature Value 3
  Tilt,                                   !- Feature Name 4
  Double,                                 !- Feature Data Type 4
  0.5,                                    !- Feature Value 4
  SurfaceType,                            !- Feature Name 5
  String,                                 !- Feature Data Type 5
  Roof;                                   !- Feature Value 5

OS:Construction,
  {6cb97303-a1a6-4d39-ab35-88875022b24d}, !- Handle
  Roof2 construction,                     !- Name
  ,                                       !- Surface Rendering Name
  {c333d62a-fcb8-4917-bff9-739139f8c773}, !- Layer 1
  {78aa0f37-68d4-4b40-a1f3-8a4f473cfcce}, !- Layer 2
  {42b81222-7348-4320-b36b-9013125002c3}; !- Layer 3

OS:Surface,
  {f9755239-8aa0-430f-86f5-831e940feb61}, !- Handle
  Wall1,                                  !- Name
  Wall,                                   !- Surface Type
  {72767fcb-e7b5-4d9f-afb0-c4fd9280d8bb}, !- Construction Name
  {bfe3e407-5317-4bbe-b031-7aa651868884}, !- Space Name
  Outdoors,                               !- Outside Boundary Condition
  ,                                       !- Outside Boundary Condition Object
  SunExposed,                             !- Sun Exposure
  WindExposed,                            !- Wind Exposure
  ,                                       !- View Factor to Ground
  ,                                       !- Number of Vertices
  -32.2917795683368, 33.2208099683368, 0, !- X,Y,Z Vertex 1 {m}
  -32.2917795683368, 33.2208099683368, 4.8768, !- X,Y,Z Vertex 2 {m}
  -28.0798245683368, 33.2208099683368, 4.8768, !- X,Y,Z Vertex 3 {m}
  -28.0798245683368, 33.2208099683368, 0; !- X,Y,Z Vertex 4 {m}

OS:AdditionalProperties,
  {f69c4801-a1cb-40da-9e97-d41ea8254d1e}, !- Handle
  {f9755239-8aa0-430f-86f5-831e940feb61}, !- Object Name
  Length,                                 !- Feature Name 1
  Double,                                 !- Feature Data Type 1
  13.81875,                               !- Feature Value 1
  Azimuth,                                !- Feature Name 2
  Integer,                                !- Feature Data Type 2
  0,                                      !- Feature Value 2
  Tilt,                                   !- Feature Name 3
  Double,                                 !- Feature Data Type 3
  90,                                     !- Feature Value 3
  SurfaceType,                            !- Feature Name 4
  String,                                 !- Feature Data Type 4
  Wall;                                   !- Feature Value 4

OS:Material,
  {91fdc27b-ff76-4a30-a7cf-63555337a10b}, !- Handle
  wood siding,                            !- Name
  Rough,                                  !- Roughness
  0.0254,                                 !- Thickness {m}
  0.1024175,                              !- Conductivity {W/m-K}
  544.68,                                 !- Density {kg/m3}
  1172.36,                                !- Specific Heat {J/kg-K}
  0.9,                                    !- Thermal Absorptance
  0.7,                                    !- Solar Absorptance
  0.7;                                    !- Visible Absorptance

OS:Material,
  {3826d19b-4942-49af-9553-f349b6d1f8ee}, !- Handle
  osb sheathing 0.5 in.,                  !- Name
  Rough,                                  !- Roughness
  0.0127,                                 !- Thickness {m}
  0.1154577,                              !- Conductivity {W/m-K}
  512.64,                                 !- Density {kg/m3}
  1214.23,                                !- Specific Heat {J/kg-K}
  0.9,                                    !- Thermal Absorptance
  0.7,                                    !- Solar Absorptance
  0.7;                                    !- Visible Absorptance

OS:Material,
  {6ed246a2-4873-4ad9-82e3-40afe914e999}, !- Handle
  wall stud and cavity,                   !- Name
  Rough,                                  !- Roughness
  0.1397,                                 !- Thickness {m}
  0.0929021674204099,                     !- Conductivity {W/m-K}
  139.0536,                               !- Density {kg/m3}
  1170.23755760369,                       !- Specific Heat {J/kg-K}
  0.9,                                    !- Thermal Absorptance
  0.7,                                    !- Solar Absorptance