
OS:Version,
  {8295a8c2-49e6-46f6-996c-26be091b9b5d}, !- Handle
  3.10.0;                                 !- Version Identifier

OS:SimulationControl,
  {4b21f008-d999-419f-823c-304f2eedc6cc}, !- Handle
  ,                                       !- Do Zone Sizing Calculation
  ,                                       !- Do System Sizing Calculation
  ,                                       !- Do Plant Sizing Calculation
  No;                                     !- Run Simulation for Sizing Periods

OS:Timestep,
  {1da205e5-d07d-4217-994e-4f47d05d6f29}, !- Handle
  1;                                      !- Number of Timesteps per Hour

OS:ShadowCalculation,
  {369c5dfb-2906-4df7-bb1d-3e204f34bd40}, !- Handle
  PolygonClipping,                        !- Shading Calculation Method
  ,                                       !- Shading Calculation Update Frequency Method
  20,                                     !- Shading Calculation Update Frequency
  200,                                    !- Maximum Figures in Shadow Overlap Calculations
  ,                                       !- Polygon Clipping Algorithm
  512,                                    !- Pixel Counting Resolution
  ,                                       !- Sky Diffuse Modeling Algorithm
  No,                                     !- Output External Shading Calculation Results
  No,                                     !- Disable Self-Shading Within Shading Zone Groups
  No;                                     !- Disable Self-Shading From Shading Zone Groups to Other Zones

OS:SurfaceConvectionAlgorithm:Outside,
  {27f05095-5481-4ea0-9398-25115ba61517}, !- Handle
  DOE-2;                                  !- Algorithm

OS:SurfaceConvectionAlgorithm:Inside,
  {de921700-25ed-46df-882b-96a41af3b9ce}, !- Handle
  TARP;                                   !- Algorithm

OS:ZoneCapacitanceMultiplier:ResearchSpecial,
  {fd1832cf-90cc-4650-9896-97b2baa6b266}, !- Handle
  7,                                      !- Temperature Capacity Multiplier
  15,                                     !- Humidity Capacity Multiplier
  ;                                       !- Carbon Dioxide Capacity Multiplier

OS:ConvergenceLimits,
  {be4b30d2-b2e7-4702-86bf-cf6a6b7834e8}, !- Handle
  0;                                      !- Minimum System Timestep {minutes}

OS:RunPeriod,
  {e633f874-0036-40d9-a3df-6a224aa7d908}, !- Handle
  Run Period 1,                           !- Name
  1,                                      !- Begin Month
  1,                                      !- Begin Day of Month
  12,                                     !- End Month
  31,                                     !- End Day of Month
  ,                                       !- Use Weather File Holidays and Special Days
  ,                                       !- Use Weather File Daylight Saving Period
  ,                                       !- Apply Weekend Holiday Rule
  ,                                       !- Use Weather File Rain Indicators
  ,                                       !- Use Weather File Snow Indicators
  ;                                       !- Number of Times Runperiod to be Repeated

OS:PerformancePrecisionTradeoffs,
  {cf770425-6ed9-4bae-b614-6b82981eb3d4}, !- Handle
  ,                                       !- Use Coil Direct Solutions
  CarrollMRT;                             !- Zone Radiant Exchange Algorithm

OS:WeatherFile,
  {2ffc57ef-0194-4435-b71d-ec07e14e33da}, !- Handle
  Buffalo Niagara Intl Ap,                !- City
  NY,                                     !- State Province Region
  USA,                                    !- Country
  TMY3,                                   !- Data Source
  725280,                                 !- WMO Number
  42.93,                                  !- Latitude {deg}
  -78.73,                                 !- Longitude {deg}
  -5,                                     !- Time Zone {hr}
  215,                                    !- Elevation {m}
  /Users/nmoore/github/urbanopt-example-geojson-project/example_project/weather/USA_NY_Buffalo-Greater.Buffalo.Intl.AP.725280_TMY3.epw, !- Url
  6B50E0FF,                               !- Checksum
  ,                                       !- Start Date Actual Year
  Sunday;                                 !- Start Day of Week

OS:YearDescription,
  {505c5f97-d8d6-4515-abd4-6029cb5ca1ed}, !- Handle
  2007,                                   !- Calendar Year
  ,                                       !- Day of Week for Start Day
  ;                                       !- Is Leap Year

OS:Site,
  {73599faf-09ed-45cb-b730-36790ca8feab}, !- Handle
  Buffalo Niagara Intl Ap_NY,             !- Name
  42.93,                                  !- Latitude {deg}
  -78.73,                                 !- Longitude {deg}
  -5,                                     !- Time Zone {hr}
  215,                                    !- Elevation {m}
  Suburbs,                                !- Terrain
  Yes;                                    !- Keep Site Location Information

OS:RunPeriodControl:DaylightSavingTime,
  {da382a77-c414-482c-a2cc-7297d921cead}, !- Handle
  Mar 12,                                 !- Start Date
  Nov 5;                                  !- End Date

OS:Site:GroundTemperature:Shallow,
  {e3065006-d2e7-4588-8019-e8ab3d8df408}, !- Handle
  4.30207395723828,                       !- January Surface Ground Temperature {C}
  2.29327249652502,                       !- February Surface Ground Temperature {C}
  2.13240047156047,                       !- March Surface Ground Temperature {C}
  3.08567940719286,                       !- April Surface Ground Temperature {C}
  6.91256312497526,                       !- May Surface Ground Temperature {C}
  10.7216195949507,                       !- June Surface Ground Temperature {C}
  14.0238679822574,                       !- July Surface Ground Temperature {C}
  16.1157611184724,                       !- August Surface Ground Temperature {C}
  16.2934789303462,                       !- September Surface Ground Temperature {C}
  14.5920754632847,                       !- October Surface Ground Temperature {C}
  11.374036348653,                        !- November Surface Ground Temperature {C}
  7.68182621661674;                       !- December Surface Ground Temperature {C}

OS:ThermalZone,
  {734ae66f-f3ab-4513-8f7e-5ebd3c2d215b}, !- Handle
  conditioned space,                      !- Name
  1,                                      !- Multiplier
  ,                                       !- Ceiling Height {m}
  692.06373070848,                        !- Volume {m3}
  ,                                       !- Floor Area {m2}
  ,                                       !- Zone Inside Convection Algorithm
  ,                                       !- Zone Outside Convection Algorithm
  ,                                       !- Zone Conditioning Equipment List Name
  {a40f9406-b679-40c3-87bf-e1503bc91849}, !- Zone Air Inlet Port List
  {cfb25c39-0665-41bc-bc70-705de09d4dee}, !- Zone Air Exhaust Port List
  {8603fbc3-0531-40b5-8881-354f8f5cb75c}, !- Zone Air Node Name
  {79c19005-c093-4418-bae9-6a7e0331735d}, !- Zone Return Air Port List
  ,                                       !- Primary Daylighting Control Name
  ,                                       !- Fraction of Zone Controlled by Primary Daylighting Control
  ,                                       !- Secondary Daylighting Control Name
  ,                                       !- Fraction of Zone Controlled by Secondary Daylighting Control
  ,                                       !- Illuminance Map Name
  ,                                       !- Group Rendering Name
  {3bde15a1-81ad-46cb-8c50-ebb3c7bf6b3f}, !- Thermostat Name
  No;                                     !- Use Ideal Air Loads

OS:Node,
  {fee18670-da37-4621-9552-73a099168280}, !- Handle
  Node 1,                                 !- Name
  {8603fbc3-0531-40b5-8881-354f8f5cb75c}, !- Inlet Port
  ;                                       !- Outlet Port

OS:Connection,
  {8603fbc3-0531-40b5-8881-354f8f5cb75c}, !- Handle
  {734ae66f-f3ab-4513-8f7e-5ebd3c2d215b}, !- Source Object
  11,                                     !- Outlet Port
  {fee18670-da37-4621-9552-73a099168280}, !- Target Object
  2;                                      !- Inlet Port

OS:PortList,
  {a40f9406-b679-40c3-87bf-e1503bc91849}, !- Handle
  {734ae66f-f3ab-4513-8f7e-5ebd3c2d215b}, !- HVAC Component
  {9b88def8-3f73-49e5-8a00-77376dd6a5de}; !- Port 1

OS:PortList,
  {cfb25c39-0665-41bc-bc70-705de09d4dee}, !- Handle
  {734ae66f-f3ab-4513-8f7e-5ebd3c2d215b}; !- HVAC Component

OS:PortList,
  {79c19005-c093-4418-bae9-6a7e0331735d}, !- Handle
  {734ae66f-f3ab-4513-8f7e-5ebd3c2d215b}, !- HVAC Component
  {3449fe0c-e480-4571-a87f-f48d1e607fcc}; !- Port 1

OS:Sizing:Zone,
  {02e9d099-340c-41a4-895b-efd3427a7bf7}, !- Handle
  {734ae66f-f3ab-4513-8f7e-5ebd3c2d215b}, !- Zone or ZoneList Name
  SupplyAirTemperature,                   !- Zone Cooling Design Supply Air Temperature Input Method
  14,                                     !- Zone Cooling Design Supply Air Temperature {C}
  11.11,                                  !- Zone Cooling Design Supply Air Temperature Difference {deltaC}
  SupplyAirTemperature,                   !- Zone Heating Design Supply Air Temperature Input Method
  40,                                     !- Zone Heating Design Supply Air Temperature {C}
  11.11,                                  !- Zone Heating Design Supply Air Temperature Difference {deltaC}
  0.0085,                                 !- Zone Cooling Design Supply Air Humidity Ratio {kg-H2O/kg-air}
  0.008,                                  !- Zone Heating Design Supply Air Humidity Ratio {kg-H2O/kg-air}
  ,                                       !- Zone Heating Sizing Factor
  ,                                       !- Zone Cooling Sizing Factor
  DesignDay,                              !- Cooling Design Air Flow Method
  ,                                       !- Cooling Design Air Flow Rate {m3/s}
  ,                                       !- Cooling Minimum Air Flow per Zone Floor Area {m3/s-m2}
  ,                                       !- Cooling Minimum Air Flow {m3/s}
  ,                                       !- Cooling Minimum Air Flow Fraction
  DesignDay,                              !- Heating Design Air Flow Method
  ,                                       !- Heating Design Air Flow Rate {m3/s}
  ,                                       !- Heating Maximum Air Flow per Zone Floor Area {m3/s-m2}
  ,                                       !- Heating Maximum Air Flow {m3/s}
  ,                                       !- Heating Maximum Air Flow Fraction
  No,                                     !- Account for Dedicated Outdoor Air System
  NeutralSupplyAir,                       !- Dedicated Outdoor Air System Control Strategy
  autosize,                               !- Dedicated Outdoor Air Low Setpoint Temperature for Design {C}
  autosize,                               !- Dedicated Outdoor Air High Setpoint Temperature for Design {C}
  Sensible Load Only No Latent Load,      !- Zone Load Sizing Method
  HumidityRatioDifference,                !- Zone Latent Cooling Design Supply Air Humidity Ratio Input Method
  ,                                       !- Zone Dehumidification Design Supply Air Humidity Ratio {kgWater/kgDryAir}
  0.005,                                  !- Zone Cooling Design Supply Air Humidity Ratio Difference {kgWater/kgDryAir}
  HumidityRatioDifference,                !- Zone Latent Heating Design Supply Air Humidity Ratio Input Method
  ,                                       !- Zone Humidification Design Supply Air Humidity Ratio {kgWater/kgDryAir}
  0.005,                                  !- Zone Humidification Design Supply Air Humidity Ratio Difference {kgWater/kgDryAir}
  ,                                       !- Zone Humidistat Dehumidification Set Point Schedule Name
  ,                                       !- Zone Humidistat Humidification Set Point Schedule Name
  ,                                       !- Design Zone Air Distribution Effectiveness in Cooling Mode
  ,                                       !- Design Zone Air Distribution Effectiveness in Heating Mode
  ,                                       !- Design Zone Secondary Recirculation Fraction {dimensionless}
  ,                                       !- Design Minimum Zone Ventilation Efficiency {dimensionless}
  Coincident;                             !- Sizing Option

OS:ZoneHVAC:EquipmentList,
  {3f20de2c-7472-4054-8446-0b81b1ffca6f}, !- Handle
  Zone HVAC Equipment List 1,             !- Name
  {734ae66f-f3ab-4513-8f7e-5ebd3c2d215b}, !- Thermal Zone
  ,                                       !- Load Distribution Scheme
  {58bbef5e-1e80-4194-b822-a76799830283}, !- Zone Equipment 1
  1,                                      !- Zone Equipment Cooling Sequence 1
  1,                                      !- Zone Equipment Heating or No-Load Sequence 1
  {44a0c118-79bd-47a1-ba8c-e84c9d39681d}, !- Zone Equipment Sequential Cooling Fraction Schedule Name 1
  {4c99ccf1-420b-40af-8cd2-e4800b54af61}; !- Zone Equipment Sequential Heating Fraction Schedule Name 1

OS:AdditionalProperties,
  {dba2ca68-0dee-483b-a886-17ee60f25dfb}, !- Handle
  {734ae66f-f3ab-4513-8f7e-5ebd3c2d215b}, !- Object Name
  ObjectType,                             !- Feature Name 1
  String,                                 !- Feature Data Type 1
  conditioned space;                      !- Feature Value 1

OS:Space,
  {e8f4a39a-cb58-4769-9c88-727b3bcb7c52}, !- Handle
  conditioned space 1,                    !- Name
  ,                                       !- Space Type Name
  ,                                       !- Default Construction Set Name
  ,                                       !- Default Schedule Set Name
  ,                                       !- Direction of Relative North {deg}
  ,                                       !- X Origin {m}
  ,                                       !- Y Origin {m}
  ,                                       !- Z Origin {m}
  ,                                       !- Building Story Name
  {734ae66f-f3ab-4513-8f7e-5ebd3c2d215b}, !- Thermal Zone Name
  ,                                       !- Part of Total Floor Area
  ,                                       !- Design Specification Outdoor Air Object Name
  ,                                       !- Building Unit Name
  692.06373070848;                        !- Volume {m3}

OS:Schedule:Ruleset,
  {43b399ec-85aa-4c43-9c6d-e200973aceb8}, !- Handle
  heating setpoint,                       !- Name
  {41c024e1-362f-4bac-8ea6-df49590e5704}, !- Schedule Type Limits Name
  {2b69d5b7-c3bd-4e92-8cd3-815056e60d67}; !- Default Day Schedule Name

OS:Schedule:Day,
  {2b69d5b7-c3bd-4e92-8cd3-815056e60d67}, !- Handle
  heating setpoint default day,           !- Name
  {41c024e1-362f-4bac-8ea6-df49590e5704}, !- Schedule Type Limits Name
  ,                                       !- Interpolate to Timestep
  24,                                     !- Hour 1
  0,                                      !- Minute 1
  0;                                      !- Value Until Time 1

OS:Schedule:Rule,
  {fb841c55-acc6-4b45-b9e1-6f21cc8f6d39}, !- Handle
  heating setpoint allday rule,           !- Name
  {43b399ec-85aa-4c43-9c6d-e200973aceb8}, !- Schedule Ruleset Name
  0,                                      !- Rule Order
  {010e0c33-48aa-4716-945b-62c9bdc3bc2e}, !- Day Schedule Name
  Yes,                                    !- Apply Sunday
  Yes,                                    !- Apply Monday
  Yes,                                    !- Apply Tuesday
  Yes,                                    !- Apply Wednesday
  Yes,                                    !- Apply Thursday
  Yes,                                    !- Apply Friday
  Yes,                                    !- Apply Saturday
  DateRange,                              !- Date Specification Type
  1,                                      !- Start Month
  1,                                      !- Start Day
  12,                                     !- End Month
  31;                                     !- End Day

OS:Schedule:Day,
  {010e0c33-48aa-4716-945b-62c9bdc3bc2e}, !- Handle
  heating setpoint day,                   !- Name
  {41c024e1-362f-4bac-8ea6-df49590e5704}, !- Schedule Type Limits Name
  ,                                       !- Interpolate to Timestep
  24,                                     !- Hour 1
  0,                                      !- Minute 1
  20;                                     !- Value Until Time 1

OS:Schedule:Ruleset,
  {e5a01988-4db3-4ed3-a513-3853fd22f48c}, !- Handle
  cooling setpoint,                       !- Name
  {41c024e1-362f-4bac-8ea6-df49590e5704}, !- Schedule Type Limits Name
  {950d381b-bf2f-48da-bc11-06c852037c49}; !- Default Day Schedule Name

OS:Schedule:Day,
  {950d381b-bf2f-48da-bc11-06c852037c49}, !- Handle
  cooling setpoint default day,           !- Name
  {41c024e1-362f-4bac-8ea6-df49590e5704}, !- Schedule Type Limits Name
  ,                                       !- Interpolate to Timestep
  24,                                     !- Hour 1
  0,                                      !- Minute 1
  0;                                      !- Value Until Time 1

OS:Schedule:Rule,
  {971c7d60-6f92-48f6-b0a5-120ed468f926}, !- Handle
  cooling setpoint allday rule,           !- Name
  {e5a01988-4db3-4ed3-a513-3853fd22f48c}, !- Schedule Ruleset Name
  0,                                      !- Rule Order
  {a03dc561-8904-429a-ae36-0208f5ab8223}, !- Day Schedule Name
  Yes,                                    !- Apply Sunday
  Yes,                                    !- Apply Monday
  Yes,                                    !- Apply Tuesday
  Yes,                                    !- Apply Wednesday
  Yes,                                    !- Apply Thursday
  Yes,                                    !- Apply Friday
  Yes,                                    !- Apply Saturday
  DateRange,                              !- Date Specification Type
  1,                                      !- Start Month
  1,                                      !- Start Day
  12,                                     !- End Month
  31;                                     !- End Day

OS:Schedule:Day,
  {a03dc561-8904-429a-ae36-0208f5ab8223}, !- Handle
  cooling setpoint day,                   !- Name
  {41c024e1-362f-4bac-8ea6-df49590e5704}, !- Schedule Type Limits Name
  ,                                       !- Interpolate to Timestep
  24,                                     !- Hour 1
  0,                                      !- Minute 1
  25.5555555555556;                       !- Value Until Time 1

OS:ThermostatSetpoint:DualSetpoint,
  {3bde15a1-81ad-46cb-8c50-ebb3c7bf6b3f}, !- Handle
  conditioned space temperature setpoint, !- Name
  {43b399ec-85aa-4c43-9c6d-e200973aceb8}, !- Heating Setpoint Temperature Schedule Name
  {e5a01988-4db3-4ed3-a513-3853fd22f48c}, !- Cooling Setpoint Temperature Schedule Name
  0;                                      !- Temperature Difference Between Cutout And Setpoint {deltaC}

OS:ScheduleTypeLimits,
  {41c024e1-362f-4bac-8ea6-df49590e5704}, !- Handle
  Temperature,                            !- Name
  ,                                       !- Lower Limit Value
  ,                                       !- Upper Limit Value
  Continuous,                             !- Numeric Type
  Temperature;                            !- Unit Type

OS:Surface,
  {230f8adf-90ec-4521-a82f-e9c7c96127ae}, !- Handle
  Roof1,                                  !- Name
  RoofCeiling,                            !- Surface Type
  {88d6eb7b-0f93-48b5-891b-6f3f7fe7f7ab}, !- Construction Name
  {f7874547-a308-4998-8b09-e7626d5c5370}, !- Space Name
  Outdoors,                               !- Outside Boundary Condition
  ,                                       !- Outside Boundary Condition Object
  SunExposed,                             !- Sun Exposure
  WindExposed,                            !- Wind Exposure
  ,                                       !- View Factor to Ground
  ,                                       !- Number of Vertices
  -26.9347048849634, 58.0557891618865, 2.4384, !- X,Y,Z Vertex 1 {m}
  -26.9347048849634, 46.7895631136661, 8.0715130241102, !- X,Y,Z Vertex 2 {m}
  -14.3386812381136, 46.7895631136661, 8.0715130241102, !- X,Y,Z Vertex 3 {m}
  -14.3386812381136, 58.0557891618865, 2.4384; !- X,Y,Z Vertex 4 {m}

OS:AdditionalProperties,
  {282e1d8f-4dbf-48d4-b68e-9bb267fa86dd}, !- Handle
  {230f8adf-90ec-4521-a82f-e9c7c96127ae}, !- Object Name
  Length,                                 !- Feature Name 1
  Double,                                 !- Feature Data Type 1
  41.325536899113608,                     !- Feature Value 1
  Width,                                  !- Feature Name 2
  Double,                                 !- Feature Data Type 2
  41.325536899113601,                     !- Feature Value 2
  Azimuth,                                !- Feature Name 3
  Integer,                                !- Feature Data Type 3
  0,                                      !- Feature Value 3
  Tilt,                                   !- Feature Name 4
  Double,                                 !- Feature Data Type 4
  0.5,                                    !- Feature Value 4
  SurfaceType,                            !- Feature Name 5
  String,                                 !- Feature Data Type 5
  Roof;                                   !- Feature Value 5

OS:ThermalZone,
  {1b8300ed-6326-4b0e-aaa2-998114ecdda3}, !- Handle
  attic - vented,                         !- Name
  1,                                      !- Multiplier
  ,                                       !- Ceiling Height {m}
  356.390921899745,                       !- Volume {m3}
  ,                                       !- Floor Area {m2}
  ,                                       !- Zone Inside Convection Algorithm
  ,                                       !- Zone Outside Convection Algorithm
  ,                                       !- Zone Conditioning Equipment List Name
  {7d1ea810-44d6-4a66-bfa4-0567ddf4907a}, !- Zone Air Inlet Port List
  {893a4084-8a55-4394-a207-a96bb3a9e691}, !- Zone Air Exhaust Port List
  {5ee9ad0e-b60f-48d5-915b-16840716f4d7}, !- Zone Air Node Name
  {f54aa451-6c45-421d-b268-8e4c1d963a29}, !- Zone Return Air Port List
  ,                                       !- Primary Daylighting Control Name
  ,                                       !- Fraction of Zone Controlled by Primary Daylighting Control
  ,                                       !- Secondary Daylighting Control Name
  ,                                       !- Fraction of Zone Controlled by Secondary Daylighting Control
  ,                                       !- Illuminance Map Name
  ,                                       !- Group Rendering Name
  ,                                       !- Thermostat Name
  No;                                     !- Use Ideal Air Loads

OS:Node,
  {481502bd-2d63-45cc-bf02-2e37aee269e0}, !- Handle
  Node 2,                                 !- Name
  {5ee9ad0e-b60f-48d5-915b-16840716f4d7}, !- Inlet Port
  ;                                       !- Outlet Port

OS:Connection,
  {5ee9ad0e-b60f-48d5-915b-16840716f4d7}, !- Handle
  {1b8300ed-6326-4b0e-aaa2-998114ecdda3}, !- Source Object
  11,                                     !- Outlet Port
  {481502bd-2d63-45cc-bf02-2e37aee269e0}, !- Target Object
  2;                                      !- Inlet Port

OS:PortList,
  {7d1ea810-44d6-4a66-bfa4-0567ddf4907a}, !- Handle
  {1b8300ed-6326-4b0e-aaa2-998114ecdda3}; !- HVAC Component

OS:PortList,
  {893a4084-8a55-4394-a207-a96bb3a9e691}, !- Handle
  {1b8300ed-6326-4b0e-aaa2-998114ecdda3}; !- HVAC Component

OS:PortList,
  {f54aa451-6c45-421d-b268-8e4c1d963a29}, !- Handle
  {1b8300ed-6326-4b0e-aaa2-998114ecdda3}; !- HVAC Component

OS:Sizing:Zone,
  {4ad03452-ff74-497f-b05f-a2911b019cc9}, !- Handle
  {1b8300ed-6326-4b0e-aaa2-998114ecdda3}, !- Zone or ZoneList Name
  SupplyAirTemperature,                   !- Zone Cooling Design Supply Air Temperature Input Method
  14,                                     !- Zone Cooling Design Supply Air Temperature {C}
  11.11,                                  !- Zone Cooling Design Supply Air Temperature Difference {deltaC}
  SupplyAirTemperature,                   !- Zone Heating Design Supply Air Temperature Input Method
  40,                                     !- Zone Heating Design Supply Air Temperature {C}
  11.11,                                  !- Zone Heating Design Supply Air Temperature Difference {deltaC}
  0.0085,                                 !- Zone Cooling Design Supply Air Humidity Ratio {kg-H2O/kg-air}
  0.008,                                  !- Zone Heating Design Supply Air Humidity Ratio {kg-H2O/kg-air}
  ,                                       !- Zone Heating Sizing Factor
  ,                                       !- Zone Cooling Sizing Factor
  DesignDay,                              !- Cooling Design Air Flow Method
  ,                                       !- Cooling Design Air Flow Rate {m3/s}
  ,                                       !- Cooling Minimum Air Flow per Zone Floor Area {m3/s-m2}
  ,                                       !- Cooling Minimum Air Flow {m3/s}
  ,                                       !- Cooling Minimum Air Flow Fraction
  DesignDay,                              !- Heating Design Air Flow Method
  ,                                       !- Heating Design Air Flow Rate {m3/s}
  ,                                       !- Heating Maximum Air Flow per Zone Floor Area {m3/s-m2}
  ,                                       !- Heating Maximum Air Flow {m3/s}
  ,                                       !- Heating Maximum Air Flow Fraction
  No,                                     !- Account for Dedicated Outdoor Air System
  NeutralSupplyAir,                       !- Dedicated Outdoor Air System Control Strategy
  autosize,                               !- Dedicated Outdoor Air Low Setpoint Temperature for Design {C}
  autosize,                               !- Dedicated Outdoor Air High Setpoint Temperature for Design {C}
  Sensible Load Only No Latent Load,      !- Zone Load Sizing Method
  HumidityRatioDifference,                !- Zone Latent Cooling Design Supply Air Humidity Ratio Input Method
  ,                                       !- Zone Dehumidification Design Supply Air Humidity Ratio {kgWater/kgDryAir}
  0.005,                                  !- Zone Cooling Design Supply Air Humidity Ratio Difference {kgWater/kgDryAir}
  HumidityRatioDifference,                !- Zone Latent Heating Design Supply Air Humidity Ratio Input Method
  ,                                       !- Zone Humidification Design Supply Air Humidity Ratio {kgWater/kgDryAir}
  0.005,                                  !- Zone Humidification Design Supply Air Humidity Ratio Difference {kgWater/kgDryAir}
  ,                                       !- Zone Humidistat Dehumidification Set Point Schedule Name
  ,                                       !- Zone Humidistat Humidification Set Point Schedule Name
  ,                                       !- Design Zone Air Distribution Effectiveness in Cooling Mode
  ,                                       !- Design Zone Air Distribution Effectiveness in Heating Mode
  ,                                       !- Design Zone Secondary Recirculation Fraction {dimensionless}
  ,                                       !- Design Minimum Zone Ventilation Efficiency {dimensionless}
  Coincident;                             !- Sizing Option

OS:ZoneHVAC:EquipmentList,
  {afc3a8b7-014d-4ca3-82f7-714ae8dc79ea}, !- Handle
  Zone HVAC Equipment List 2,             !- Name
  {1b8300ed-6326-4b0e-aaa2-998114ecdda3}; !- Thermal Zone

OS:AdditionalProperties,
  {e36a3c77-fd20-49aa-bbc9-ae7e665e062a}, !- Handle
  {1b8300ed-6326-4b0e-aaa2-998114ecdda3}, !- Object Name
  ObjectType,                             !- Feature Name 1
  String,                                 !- Feature Data Type 1
  attic - vented;                         !- Feature Value 1

OS:Space,
  {f7874547-a308-4998-8b09-e7626d5c5370}, !- Handle
  attic - vented 1,                       !- Name
  ,                                       !- Space Type Name
  ,                                       !- Default Construction Set Name
  ,                                       !- Default Schedule Set Name
  ,                                       !- Direction of Relative North {deg}
  ,                                       !- X Origin {m}
  ,                                       !- Y Origin {m}
  ,                                       !- Z Origin {m}
  ,                                       !- Building Story Name
  {1b8300ed-6326-4b0e-aaa2-998114ecdda3}, !- Thermal Zone Name
  ,                                       !- Part of Total Floor Area
  ,                                       !- Design Specification Outdoor Air Object Name
  ,                                       !- Building Unit Name
  356.390921899745;                       !- Volume {m3}

OS:Material,
  {a31774de-f30f-4922-98c4-7953c69e5757}, !- Handle
  asphalt or fiberglass shingles,         !- Name
  Rough,                                  !- Roughness
  0.00635,                                !- Thickness {m}
  0.162714,                               !- Conductivity {W/m-K}
  1121.4,                                 !- Density {kg/m3}
  1465.45,                                !- Specific Heat {J/kg-K}
  0.9,                                    !- Thermal Absorptance
  0.85,                                   !- Solar Absorptance