
OS:Version,
  {ab472b0e-3da8-47f1-abce-6b48ea728d53}, !- Handle
  3.9.0;                                  !- Version Identifier

OS:SimulationControl,
  {a4176923-19f3-4824-aab3-95a2f23d9d81}, !- Handle
  ,                                       !- Do Zone Sizing Calculation
  ,                                       !- Do System Sizing Calculation
  ,                                       !- Do Plant Sizing Calculation
  No;                                     !- Run Simulation for Sizing Periods

OS:Timestep,
  {499320dd-694a-4d47-afcb-d9ce0def0f75}, !- Handle
  1;                                      !- Number of Timesteps per Hour

OS:ShadowCalculation,
  {db88911c-41ca-45bb-ae9c-0c274a7c3831}, !- Handle
  PolygonClipping,                        !- Shading Calculation Method
  ,                                       !- Shading Calculation Update Frequency Method
  20,                                     !- Shading Calculation Update Frequency
  200,                                    !- Maximum Figures in Shadow Overlap Calculations
  ,                                       !- Polygon Clipping Algorithm
  512,                                    !- Pixel Counting Resolution
  ,                                       !- Sky Diffuse Modeling Algorithm
  No,                                     !- Output External Shading Calculation Results
  No,                                     !- Disable Self-Shading Within Shading Zone Groups
  No;                                     !- Disable Self-Shading From Shading Zone Groups to Other Zones

OS:SurfaceConvectionAlgorithm:Outside,
  {b2adb1c7-f1eb-49af-bec0-64c88458c03c}, !- Handle
  DOE-2;                                  !- Algorithm

OS:SurfaceConvectionAlgorithm:Inside,
  {60badd80-e9eb-4f33-b9f1-b9ecc9ba9d77}, !- Handle
  TARP;                                   !- Algorithm

OS:ZoneCapacitanceMultiplier:ResearchSpecial,
  {79ff073b-95ca-4aaf-a1c4-171f114d7983}, !- Handle
  7,                                      !- Temperature Capacity Multiplier
  15,                                     !- Humidity Capacity Multiplier
  ;                                       !- Carbon Dioxide Capacity Multiplier

OS:ConvergenceLimits,
  {ed7a4292-c3b5-4bd8-852f-6872623a14af}, !- Handle
  0;                                      !- Minimum System Timestep {minutes}

OS:RunPeriod,
  {270b7747-9546-4c22-afb0-23d03b72890f}, !- Handle
  Run Period 1,                           !- Name
  1,                                      !- Begin Month
  1,                                      !- Begin Day of Month
  12,                                     !- End Month
  31,                                     !- End Day of Month
  ,                                       !- Use Weather File Holidays and Special Days
  ,                                       !- Use Weather File Daylight Saving Period
  ,                                       !- Apply Weekend Holiday Rule
  ,                                       !- Use Weather File Rain Indicators
  ,                                       !- Use Weather File Snow Indicators
  ;                                       !- Number of Times Runperiod to be Repeated

OS:PerformancePrecisionTradeoffs,
  {fc3e5114-9d81-4f37-8e9b-b9d48d3f18a4}, !- Handle
  ,                                       !- Use Coil Direct Solutions
  CarrollMRT;                             !- Zone Radiant Exchange Algorithm

OS:WeatherFile,
  {80959b6f-bcad-4c6d-95d9-5eface204216}, !- Handle
  Buffalo Niagara Intl Ap,                !- City
  NY,                                     !- State Province Region
  USA,                                    !- Country
  TMY3,                                   !- Data Source
  725280,                                 !- WMO Number
  42.93,                                  !- Latitude {deg}
  -78.73,                                 !- Longitude {deg}
  -5,                                     !- Time Zone {hr}
  215,                                    !- Elevation {m}
  /Users/nmoore/github/urbanopt-example-geojson-project/example_project/weather/USA_NY_Buffalo-Greater.Buffalo.Intl.AP.725280_TMY3.epw, !- Url
  6B50E0FF,                               !- Checksum
  ,                                       !- Start Date Actual Year
  Sunday;                                 !- Start Day of Week

OS:YearDescription,
  {03341c9a-3c1c-4b8e-a7f7-b69b96a107f9}, !- Handle
  2007,                                   !- Calendar Year
  ,                                       !- Day of Week for Start Day
  ;                                       !- Is Leap Year

OS:Site,
  {485229ef-09ca-42a6-9841-80b94b401c4a}, !- Handle
  Buffalo Niagara Intl Ap_NY,             !- Name
  42.93,                                  !- Latitude {deg}
  -78.73,                                 !- Longitude {deg}
  -5,                                     !- Time Zone {hr}
  215,                                    !- Elevation {m}
  Suburbs,                                !- Terrain
  Yes;                                    !- Keep Site Location Information

OS:RunPeriodControl:DaylightSavingTime,
  {e6be6717-421a-4b8e-ac68-b70e93869d32}, !- Handle
  Mar 12,                                 !- Start Date
  Nov 5;                                  !- End Date

OS:Site:GroundTemperature:Shallow,
  {b27ee78a-7004-4b9c-816f-f09d1d9b4014}, !- Handle
  4.30207395723828,                       !- January Surface Ground Temperature {C}
  2.29327249652502,                       !- February Surface Ground Temperature {C}
  2.13240047156047,                       !- March Surface Ground Temperature {C}
  3.08567940719286,                       !- April Surface Ground Temperature {C}
  6.91256312497526,                       !- May Surface Ground Temperature {C}
  10.7216195949507,                       !- June Surface Ground Temperature {C}
  14.0238679822574,                       !- July Surface Ground Temperature {C}
  16.1157611184724,                       !- August Surface Ground Temperature {C}
  16.2934789303462,                       !- September Surface Ground Temperature {C}
  14.5920754632847,                       !- October Surface Ground Temperature {C}
  11.374036348653,                        !- November Surface Ground Temperature {C}
  7.68182621661674;                       !- December Surface Ground Temperature {C}

OS:ThermalZone,
  {b08bb531-2e11-4959-8bb9-d233ce8bef66}, !- Handle
  conditioned space,                      !- Name
  1,                                      !- Multiplier
  ,                                       !- Ceiling Height {m}
  692.06373070848,                        !- Volume {m3}
  ,                                       !- Floor Area {m2}
  ,                                       !- Zone Inside Convection Algorithm
  ,                                       !- Zone Outside Convection Algorithm
  ,                                       !- Zone Conditioning Equipment List Name
  {134092a5-491c-4ebc-b03b-d26db9857f52}, !- Zone Air Inlet Port List
  {96f054c6-104a-42a9-86ab-b43d295e03d9}, !- Zone Air Exhaust Port List
  {120f907e-44cf-4561-b091-ee03222d3587}, !- Zone Air Node Name
  {3251d3f5-48b1-48a2-8bd1-574f64b88db9}, !- Zone Return Air Port List
  ,                                       !- Primary Daylighting Control Name
  ,                                       !- Fraction of Zone Controlled by Primary Daylighting Control
  ,                                       !- Secondary Daylighting Control Name
  ,                                       !- Fraction of Zone Controlled by Secondary Daylighting Control
  ,                                       !- Illuminance Map Name
  ,                                       !- Group Rendering Name
  {da3a2574-e6f8-4546-acaa-645375608e8f}, !- Thermostat Name
  No;                                     !- Use Ideal Air Loads

OS:Node,
  {c5995adb-2ea3-4a8b-86bf-79dafe48fe72}, !- Handle
  Node 1,                                 !- Name
  {120f907e-44cf-4561-b091-ee03222d3587}, !- Inlet Port
  ;                                       !- Outlet Port

OS:Connection,
  {120f907e-44cf-4561-b091-ee03222d3587}, !- Handle
  {b08bb531-2e11-4959-8bb9-d233ce8bef66}, !- Source Object
  11,                                     !- Outlet Port
  {c5995adb-2ea3-4a8b-86bf-79dafe48fe72}, !- Target Object
  2;                                      !- Inlet Port

OS:PortList,
  {134092a5-491c-4ebc-b03b-d26db9857f52}, !- Handle
  {b08bb531-2e11-4959-8bb9-d233ce8bef66}, !- HVAC Component
  {7bdb6170-d0af-4a0e-915f-9dfa1c7814af}; !- Port 1

OS:PortList,
  {96f054c6-104a-42a9-86ab-b43d295e03d9}, !- Handle
  {b08bb531-2e11-4959-8bb9-d233ce8bef66}; !- HVAC Component

OS:PortList,
  {3251d3f5-48b1-48a2-8bd1-574f64b88db9}, !- Handle
  {b08bb531-2e11-4959-8bb9-d233ce8bef66}, !- HVAC Component
  {bfc4a0e3-0810-4750-8737-0a894d543375}; !- Port 1

OS:Sizing:Zone,
  {59ec63d5-9147-4bbc-a337-d10ff2aa29e5}, !- Handle
  {b08bb531-2e11-4959-8bb9-d233ce8bef66}, !- Zone or ZoneList Name
  SupplyAirTemperature,                   !- Zone Cooling Design Supply Air Temperature Input Method
  14,                                     !- Zone Cooling Design Supply Air Temperature {C}
  11.11,                                  !- Zone Cooling Design Supply Air Temperature Difference {deltaC}
  SupplyAirTemperature,                   !- Zone Heating Design Supply Air Temperature Input Method
  40,                                     !- Zone Heating Design Supply Air Temperature {C}
  11.11,                                  !- Zone Heating Design Supply Air Temperature Difference {deltaC}
  0.0085,                                 !- Zone Cooling Design Supply Air Humidity Ratio {kg-H2O/kg-air}
  0.008,                                  !- Zone Heating Design Supply Air Humidity Ratio {kg-H2O/kg-air}
  ,                                       !- Zone Heating Sizing Factor
  ,                                       !- Zone Cooling Sizing Factor
  DesignDay,                              !- Cooling Design Air Flow Method
  ,                                       !- Cooling Design Air Flow Rate {m3/s}
  ,                                       !- Cooling Minimum Air Flow per Zone Floor Area {m3/s-m2}
  ,                                       !- Cooling Minimum Air Flow {m3/s}
  ,                                       !- Cooling Minimum Air Flow Fraction
  DesignDay,                              !- Heating Design Air Flow Method
  ,                                       !- Heating Design Air Flow Rate {m3/s}
  ,                                       !- Heating Maximum Air Flow per Zone Floor Area {m3/s-m2}
  ,                                       !- Heating Maximum Air Flow {m3/s}
  ,                                       !- Heating Maximum Air Flow Fraction
  No,                                     !- Account for Dedicated Outdoor Air System
  NeutralSupplyAir,                       !- Dedicated Outdoor Air System Control Strategy
  autosize,                               !- Dedicated Outdoor Air Low Setpoint Temperature for Design {C}
  autosize,                               !- Dedicated Outdoor Air High Setpoint Temperature for Design {C}
  Sensible Load Only No Latent Load,      !- Zone Load Sizing Method
  HumidityRatioDifference,                !- Zone Latent Cooling Design Supply Air Humidity Ratio Input Method
  ,                                       !- Zone Dehumidification Design Supply Air Humidity Ratio {kgWater/kgDryAir}
  0.005,                                  !- Zone Cooling Design Supply Air Humidity Ratio Difference {kgWater/kgDryAir}
  HumidityRatioDifference,                !- Zone Latent Heating Design Supply Air Humidity Ratio Input Method
  ,                                       !- Zone Humidification Design Supply Air Humidity Ratio {kgWater/kgDryAir}
  0.005,                                  !- Zone Humidification Design Supply Air Humidity Ratio Difference {kgWater/kgDryAir}
  ,                                       !- Zone Humidistat Dehumidification Set Point Schedule Name
  ,                                       !- Zone Humidistat Humidification Set Point Schedule Name
  ,                                       !- Design Zone Air Distribution Effectiveness in Cooling Mode
  ,                                       !- Design Zone Air Distribution Effectiveness in Heating Mode
  ,                                       !- Design Zone Secondary Recirculation Fraction {dimensionless}
  ,                                       !- Design Minimum Zone Ventilation Efficiency {dimensionless}
  Coincident;                             !- Sizing Option

OS:ZoneHVAC:EquipmentList,
  {beabc710-8fe1-45a9-a7d9-5bf13b5aa168}, !- Handle
  Zone HVAC Equipment List 1,             !- Name
  {b08bb531-2e11-4959-8bb9-d233ce8bef66}, !- Thermal Zone
  ,                                       !- Load Distribution Scheme
  {b0b763d8-5b18-44c1-8644-fa543e430f77}, !- Zone Equipment 1
  1,                                      !- Zone Equipment Cooling Sequence 1
  1,                                      !- Zone Equipment Heating or No-Load Sequence 1
  {8fd36b3d-63e6-4a27-be7c-59cd9319c3c2}, !- Zone Equipment Sequential Cooling Fraction Schedule Name 1
  {f3a6c6fe-6cce-4712-99a0-8388b9f0441f}; !- Zone Equipment Sequential Heating Fraction Schedule Name 1

OS:AdditionalProperties,
  {0e3d2492-c828-4ec4-97f0-4a3d19dad21b}, !- Handle
  {b08bb531-2e11-4959-8bb9-d233ce8bef66}, !- Object Name
  ObjectType,                             !- Feature Name 1
  String,                                 !- Feature Data Type 1
  conditioned space;                      !- Feature Value 1

OS:Space,
  {62c846a3-089c-4346-8f69-c15cc2181f9d}, !- Handle
  conditioned space 1,                    !- Name
  ,                                       !- Space Type Name
  ,                                       !- Default Construction Set Name
  ,                                       !- Default Schedule Set Name
  ,                                       !- Direction of Relative North {deg}
  ,                                       !- X Origin {m}
  ,                                       !- Y Origin {m}
  ,                                       !- Z Origin {m}
  ,                                       !- Building Story Name
  {b08bb531-2e11-4959-8bb9-d233ce8bef66}, !- Thermal Zone Name
  ,                                       !- Part of Total Floor Area
  ,                                       !- Design Specification Outdoor Air Object Name
  ,                                       !- Building Unit Name
  692.06373070848;                        !- Volume {m3}

OS:Schedule:Ruleset,
  {4635798e-d196-4b8a-ac58-06fd6df00f7d}, !- Handle
  heating setpoint,                       !- Name
  {2c51075b-b4c6-42fa-8acf-4f476e33dd9d}, !- Schedule Type Limits Name
  {e4104365-8f34-4055-9705-cb4dbb98e604}; !- Default Day Schedule Name

OS:Schedule:Day,
  {e4104365-8f34-4055-9705-cb4dbb98e604}, !- Handle
  heating setpoint default day,           !- Name
  {2c51075b-b4c6-42fa-8acf-4f476e33dd9d}, !- Schedule Type Limits Name
  ,                                       !- Interpolate to Timestep
  24,                                     !- Hour 1
  0,                                      !- Minute 1
  0;                                      !- Value Until Time 1

OS:Schedule:Rule,
  {ba7a4a0a-2147-4435-bbf3-9900666eadf3}, !- Handle
  heating setpoint allday rule,           !- Name
  {4635798e-d196-4b8a-ac58-06fd6df00f7d}, !- Schedule Ruleset Name
  0,                                      !- Rule Order
  {4b09a008-8000-4308-9a28-ab67858931ff}, !- Day Schedule Name
  Yes,                                    !- Apply Sunday
  Yes,                                    !- Apply Monday
  Yes,                                    !- Apply Tuesday
  Yes,                                    !- Apply Wednesday
  Yes,                                    !- Apply Thursday
  Yes,                                    !- Apply Friday
  Yes,                                    !- Apply Saturday
  DateRange,                              !- Date Specification Type
  1,                                      !- Start Month
  1,                                      !- Start Day
  12,                                     !- End Month
  31;                                     !- End Day

OS:Schedule:Day,
  {4b09a008-8000-4308-9a28-ab67858931ff}, !- Handle
  heating setpoint day,                   !- Name
  {2c51075b-b4c6-42fa-8acf-4f476e33dd9d}, !- Schedule Type Limits Name
  ,                                       !- Interpolate to Timestep
  24,                                     !- Hour 1
  0,                                      !- Minute 1
  20;                                     !- Value Until Time 1

OS:Schedule:Ruleset,
  {6f215954-cee8-4b6b-b5fa-3f68bc199bc9}, !- Handle
  cooling setpoint,                       !- Name
  {2c51075b-b4c6-42fa-8acf-4f476e33dd9d}, !- Schedule Type Limits Name
  {763f5902-3154-4ed4-aafc-c3663f670785}; !- Default Day Schedule Name

OS:Schedule:Day,
  {763f5902-3154-4ed4-aafc-c3663f670785}, !- Handle
  cooling setpoint default day,           !- Name
  {2c51075b-b4c6-42fa-8acf-4f476e33dd9d}, !- Schedule Type Limits Name
  ,                                       !- Interpolate to Timestep
  24,                                     !- Hour 1
  0,                                      !- Minute 1
  0;                                      !- Value Until Time 1

OS:Schedule:Rule,
  {41975601-a579-490c-9f68-289acfdcec90}, !- Handle
  cooling setpoint allday rule,           !- Name
  {6f215954-cee8-4b6b-b5fa-3f68bc199bc9}, !- Schedule Ruleset Name
  0,                                      !- Rule Order
  {88c8861c-6b41-4cc1-80da-2eb4446ce3ec}, !- Day Schedule Name
  Yes,                                    !- Apply Sunday
  Yes,                                    !- Apply Monday
  Yes,                                    !- Apply Tuesday
  Yes,                                    !- Apply Wednesday
  Yes,                                    !- Apply Thursday
  Yes,                                    !- Apply Friday
  Yes,                                    !- Apply Saturday
  DateRange,                              !- Date Specification Type
  1,                                      !- Start Month
  1,                                      !- Start Day
  12,                                     !- End Month
  31;                                     !- End Day

OS:Schedule:Day,
  {88c8861c-6b41-4cc1-80da-2eb4446ce3ec}, !- Handle
  cooling setpoint day,                   !- Name
  {2c51075b-b4c6-42fa-8acf-4f476e33dd9d}, !- Schedule Type Limits Name
  ,                                       !- Interpolate to Timestep
  24,                                     !- Hour 1
  0,                                      !- Minute 1
  25.5555555555556;                       !- Value Until Time 1

OS:ThermostatSetpoint:DualSetpoint,
  {da3a2574-e6f8-4546-acaa-645375608e8f}, !- Handle
  conditioned space temperature setpoint, !- Name
  {4635798e-d196-4b8a-ac58-06fd6df00f7d}, !- Heating Setpoint Temperature Schedule Name
  {6f215954-cee8-4b6b-b5fa-3f68bc199bc9}, !- Cooling Setpoint Temperature Schedule Name
  0;                                      !- Temperature Difference Between Cutout And Setpoint {deltaC}

OS:ScheduleTypeLimits,
  {2c51075b-b4c6-42fa-8acf-4f476e33dd9d}, !- Handle
  Temperature,                            !- Name
  ,                                       !- Lower Limit Value
  ,                                       !- Upper Limit Value
  Continuous,                             !- Numeric Type
  Temperature;                            !- Unit Type

OS:Surface,
  {058bc99d-30ce-45d9-9b03-4c690e71cd15}, !- Handle
  Roof1,                                  !- Name
  RoofCeiling,                            !- Surface Type
  {7dc0469e-667a-452a-bf4c-90b31fc2d045}, !- Construction Name
  {06a8432a-8bb1-43ff-9378-34f7c45a2f40}, !- Space Name
  Outdoors,                               !- Outside Boundary Condition
  ,                                       !- Outside Boundary Condition Object
  SunExposed,                             !- Sun Exposure
  WindExposed,                            !- Wind Exposure
  ,                                       !- View Factor to Ground
  ,                                       !- Number of Vertices
  -26.9347048849634, 58.0557891618865, 2.4384, !- X,Y,Z Vertex 1 {m}
  -26.9347048849634, 46.7895631136661, 8.0715130241102, !- X,Y,Z Vertex 2 {m}
  -14.3386812381136, 46.7895631136661, 8.0715130241102, !- X,Y,Z Vertex 3 {m}
  -14.3386812381136, 58.0557891618865, 2.4384; !- X,Y,Z Vertex 4 {m}

OS:AdditionalProperties,
  {db7e9db7-5c7b-4b20-86a5-a15776c9fb74}, !- Handle
  {058bc99d-30ce-45d9-9b03-4c690e71cd15}, !- Object Name
  Length,                                 !- Feature Name 1
  Double,                                 !- Feature Data Type 1
  41.325536899113608,                     !- Feature Value 1
  Width,                                  !- Feature Name 2
  Double,                                 !- Feature Data Type 2
  41.325536899113601,                     !- Feature Value 2
  Azimuth,                                !- Feature Name 3
  Integer,                                !- Feature Data Type 3
  0,                                      !- Feature Value 3
  Tilt,                                   !- Feature Name 4
  Double,                                 !- Feature Data Type 4
  0.5,                                    !- Feature Value 4
  SurfaceType,                            !- Feature Name 5
  String,                                 !- Feature Data Type 5
  Roof;                                   !- Feature Value 5

OS:ThermalZone,
  {b6b7a9ae-8ea7-4ab6-a26a-d25887db38f6}, !- Handle
  attic - vented,                         !- Name
  1,                                      !- Multiplier
  ,                                       !- Ceiling Height {m}
  356.389957095237,                       !- Volume {m3}
  ,                                       !- Floor Area {m2}
  ,                                       !- Zone Inside Convection Algorithm
  ,                                       !- Zone Outside Convection Algorithm
  ,                                       !- Zone Conditioning Equipment List Name
  {15264ee6-7d23-4300-b133-cd77ee928087}, !- Zone Air Inlet Port List
  {ebf3d6a5-44ec-44b2-bd7a-81ead81a8ddb}, !- Zone Air Exhaust Port List
  {bb422f01-659d-46c7-b61a-bc35ead7f98d}, !- Zone Air Node Name
  {68c0d84f-5ae7-4a2e-afb8-b48e2727b7fa}, !- Zone Return Air Port List
  ,                                       !- Primary Daylighting Control Name
  ,                                       !- Fraction of Zone Controlled by Primary Daylighting Control
  ,                                       !- Secondary Daylighting Control Name
  ,                                       !- Fraction of Zone Controlled by Secondary Daylighting Control
  ,                                       !- Illuminance Map Name
  ,                                       !- Group Rendering Name
  ,                                       !- Thermostat Name
  No;                                     !- Use Ideal Air Loads

OS:Node,
  {91188419-7d7b-4ca2-aeb4-341f783eddae}, !- Handle
  Node 2,                                 !- Name
  {bb422f01-659d-46c7-b61a-bc35ead7f98d}, !- Inlet Port
  ;                                       !- Outlet Port

OS:Connection,
  {bb422f01-659d-46c7-b61a-bc35ead7f98d}, !- Handle
  {b6b7a9ae-8ea7-4ab6-a26a-d25887db38f6}, !- Source Object
  11,                                     !- Outlet Port
  {91188419-7d7b-4ca2-aeb4-341f783eddae}, !- Target Object
  2;                                      !- Inlet Port

OS:PortList,
  {15264ee6-7d23-4300-b133-cd77ee928087}, !- Handle
  {b6b7a9ae-8ea7-4ab6-a26a-d25887db38f6}; !- HVAC Component

OS:PortList,
  {ebf3d6a5-44ec-44b2-bd7a-81ead81a8ddb}, !- Handle
  {b6b7a9ae-8ea7-4ab6-a26a-d25887db38f6}; !- HVAC Component

OS:PortList,
  {68c0d84f-5ae7-4a2e-afb8-b48e2727b7fa}, !- Handle
  {b6b7a9ae-8ea7-4ab6-a26a-d25887db38f6}; !- HVAC Component

OS:Sizing:Zone,
  {af502f25-2183-42de-a9f1-a6f1b6f06a8c}, !- Handle
  {b6b7a9ae-8ea7-4ab6-a26a-d25887db38f6}, !- Zone or ZoneList Name
  SupplyAirTemperature,                   !- Zone Cooling Design Supply Air Temperature Input Method
  14,                                     !- Zone Cooling Design Supply Air Temperature {C}
  11.11,                                  !- Zone Cooling Design Supply Air Temperature Difference {deltaC}
  SupplyAirTemperature,                   !- Zone Heating Design Supply Air Temperature Input Method
  40,                                     !- Zone Heating Design Supply Air Temperature {C}
  11.11,                                  !- Zone Heating Design Supply Air Temperature Difference {deltaC}
  0.0085,                                 !- Zone Cooling Design Supply Air Humidity Ratio {kg-H2O/kg-air}
  0.008,                                  !- Zone Heating Design Supply Air Humidity Ratio {kg-H2O/kg-air}
  ,                                       !- Zone Heating Sizing Factor
  ,                                       !- Zone Cooling Sizing Factor
  DesignDay,                              !- Cooling Design Air Flow Method
  ,                                       !- Cooling Design Air Flow Rate {m3/s}
  ,                                       !- Cooling Minimum Air Flow per Zone Floor Area {m3/s-m2}
  ,                                       !- Cooling Minimum Air Flow {m3/s}
  ,                                       !- Cooling Minimum Air Flow Fraction
  DesignDay,                              !- Heating Design Air Flow Method
  ,                                       !- Heating Design Air Flow Rate {m3/s}
  ,                                       !- Heating Maximum Air Flow per Zone Floor Area {m3/s-m2}
  ,                                       !- Heating Maximum Air Flow {m3/s}
  ,                                       !- Heating Maximum Air Flow Fraction
  No,                                     !- Account for Dedicated Outdoor Air System
  NeutralSupplyAir,                       !- Dedicated Outdoor Air System Control Strategy
  autosize,                               !- Dedicated Outdoor Air Low Setpoint Temperature for Design {C}
  autosize,                               !- Dedicated Outdoor Air High Setpoint Temperature for Design {C}
  Sensible Load Only No Latent Load,      !- Zone Load Sizing Method
  HumidityRatioDifference,                !- Zone Latent Cooling Design Supply Air Humidity Ratio Input Method
  ,                                       !- Zone Dehumidification Design Supply Air Humidity Ratio {kgWater/kgDryAir}
  0.005,                                  !- Zone Cooling Design Supply Air Humidity Ratio Difference {kgWater/kgDryAir}
  HumidityRatioDifference,                !- Zone Latent Heating Design Supply Air Humidity Ratio Input Method
  ,                                       !- Zone Humidification Design Supply Air Humidity Ratio {kgWater/kgDryAir}
  0.005,                                  !- Zone Humidification Design Supply Air Humidity Ratio Difference {kgWater/kgDryAir}
  ,                                       !- Zone Humidistat Dehumidification Set Point Schedule Name
  ,                                       !- Zone Humidistat Humidification Set Point Schedule Name
  ,                                       !- Design Zone Air Distribution Effectiveness in Cooling Mode
  ,                                       !- Design Zone Air Distribution Effectiveness in Heating Mode
  ,                                       !- Design Zone Secondary Recirculation Fraction {dimensionless}
  ,                                       !- Design Minimum Zone Ventilation Efficiency {dimensionless}
  Coincident;                             !- Sizing Option

OS:ZoneHVAC:EquipmentList,
  {03b0b80e-db3e-48c6-80ac-c7067b90582f}, !- Handle
  Zone HVAC Equipment List 2,             !- Name
  {b6b7a9ae-8ea7-4ab6-a26a-d25887db38f6}; !- Thermal Zone

OS:AdditionalProperties,
  {c1d5d67a-2b15-4a96-82eb-ac7f5d8d5228}, !- Handle
  {b6b7a9ae-8ea7-4ab6-a26a-d25887db38f6}, !- Object Name
  ObjectType,                             !- Feature Name 1
  String,                                 !- Feature Data Type 1
  attic - vented;                         !- Feature Value 1

OS:Space,
  {06a8432a-8bb1-43ff-9378-34f7c45a2f40}, !- Handle
  attic - vented 1,                       !- Name
  ,                                       !- Space Type Name
  ,                                       !- Default Construction Set Name
  ,                                       !- Default Schedule Set Name
  ,                                       !- Direction of Relative North {deg}
  ,                                       !- X Origin {m}
  ,                                       !- Y Origin {m}
  ,                                       !- Z Origin {m}
  ,                                       !- Building Story Name
  {b6b7a9ae-8ea7-4ab6-a26a-d25887db38f6}, !- Thermal Zone Name
  ,                                       !- Part of Total Floor Area
  ,                                       !- Design Specification Outdoor Air Object Name
  ,                                       !- Building Unit Name
  356.389957095237;                       !- Volume {m3}

OS:Material,
  {e5672d02-714f-4e5a-b03a-fc1a4547b8aa}, !- Handle
  asphalt or fiberglass shingles,         !- Name
  Rough,                                  !- Roughness
  0.00635,                                !- Thickness {m}
  0.162714,                               !- Conductivity {W/m-K}
  1121.4,                                 !- Density {kg/m3}
  1465.45,                                !- Specific Heat {J/kg-K}
  0.9,                                    !- Thermal Absorptance
  0.85,                                   !- Solar Absorptance