
OS:Version,
  {94e6703d-cb06-4ef3-a661-770664769b3a}, !- Handle
  3.9.0;                                  !- Version Identifier

OS:SimulationControl,
  {36c4da91-2308-4419-a9dc-509aad154a1e}, !- Handle
  ,                                       !- Do Zone Sizing Calculation
  ,                                       !- Do System Sizing Calculation
  ,                                       !- Do Plant Sizing Calculation
  No;                                     !- Run Simulation for Sizing Periods

OS:Timestep,
  {30a9814f-7656-4094-8a00-7222c9ab2823}, !- Handle
  1;                                      !- Number of Timesteps per Hour

OS:ShadowCalculation,
  {2bd0ff25-a11d-498a-a2f9-872ac69aab18}, !- Handle
  PolygonClipping,                        !- Shading Calculation Method
  ,                                       !- Shading Calculation Update Frequency Method
  20,                                     !- Shading Calculation Update Frequency
  200,                                    !- Maximum Figures in Shadow Overlap Calculations
  ,                                       !- Polygon Clipping Algorithm
  512,                                    !- Pixel Counting Resolution
  ,                                       !- Sky Diffuse Modeling Algorithm
  No,                                     !- Output External Shading Calculation Results
  No,                                     !- Disable Self-Shading Within Shading Zone Groups
  No;                                     !- Disable Self-Shading From Shading Zone Groups to Other Zones

OS:SurfaceConvectionAlgorithm:Outside,
  {faf39bf3-0b26-459a-a332-8deab85415e3}, !- Handle
  DOE-2;                                  !- Algorithm

OS:SurfaceConvectionAlgorithm:Inside,
  {a7dceaf1-45f2-4ce5-8142-582e4fde3edf}, !- Handle
  TARP;                                   !- Algorithm

OS:ZoneCapacitanceMultiplier:ResearchSpecial,
  {956118c3-1017-4472-9c11-3f435be84398}, !- Handle
  7,                                      !- Temperature Capacity Multiplier
  15,                                     !- Humidity Capacity Multiplier
  ;                                       !- Carbon Dioxide Capacity Multiplier

OS:ConvergenceLimits,
  {d395be39-c946-42b1-b164-f6b1736c63d9}, !- Handle
  0;                                      !- Minimum System Timestep {minutes}

OS:RunPeriod,
  {cd7149e2-557d-4a99-a55f-6291f7e6f852}, !- Handle
  Run Period 1,                           !- Name
  1,                                      !- Begin Month
  1,                                      !- Begin Day of Month
  12,                                     !- End Month
  31,                                     !- End Day of Month
  ,                                       !- Use Weather File Holidays and Special Days
  ,                                       !- Use Weather File Daylight Saving Period
  ,                                       !- Apply Weekend Holiday Rule
  ,                                       !- Use Weather File Rain Indicators
  ,                                       !- Use Weather File Snow Indicators
  ;                                       !- Number of Times Runperiod to be Repeated

OS:PerformancePrecisionTradeoffs,
  {1ee3ae12-b455-45b8-898f-f7d5793e5c56}, !- Handle
  ,                                       !- Use Coil Direct Solutions
  CarrollMRT;                             !- Zone Radiant Exchange Algorithm

OS:WeatherFile,
  {9c7600e3-d794-4491-afbf-75388ae8b504}, !- Handle
  Buffalo Niagara Intl Ap,                !- City
  NY,                                     !- State Province Region
  USA,                                    !- Country
  TMY3,                                   !- Data Source
  725280,                                 !- WMO Number
  42.93,                                  !- Latitude {deg}
  -78.73,                                 !- Longitude {deg}
  -5,                                     !- Time Zone {hr}
  215,                                    !- Elevation {m}
  /Users/nmoore/github/urbanopt-example-geojson-project/example_project/weather/USA_NY_Buffalo-Greater.Buffalo.Intl.AP.725280_TMY3.epw, !- Url
  6B50E0FF,                               !- Checksum
  ,                                       !- Start Date Actual Year
  Sunday;                                 !- Start Day of Week

OS:YearDescription,
  {5275dc14-2cd9-4f71-838f-e34c313c60e0}, !- Handle
  2007,                                   !- Calendar Year
  ,                                       !- Day of Week for Start Day
  ;                                       !- Is Leap Year

OS:Site,
  {f4838ea0-ef7e-45a7-9489-b1f9070e4aed}, !- Handle
  Buffalo Niagara Intl Ap_NY,             !- Name
  42.93,                                  !- Latitude {deg}
  -78.73,                                 !- Longitude {deg}
  -5,                                     !- Time Zone {hr}
  215,                                    !- Elevation {m}
  Suburbs,                                !- Terrain
  Yes;                                    !- Keep Site Location Information

OS:RunPeriodControl:DaylightSavingTime,
  {f6cee45b-456f-477c-a376-0d700c19c73c}, !- Handle
  Mar 12,                                 !- Start Date
  Nov 5;                                  !- End Date

OS:Site:GroundTemperature:Shallow,
  {0ba14644-e07e-4aa2-bf0c-f21d35a8d261}, !- Handle
  4.30207395723828,                       !- January Surface Ground Temperature {C}
  2.29327249652502,                       !- February Surface Ground Temperature {C}
  2.13240047156047,                       !- March Surface Ground Temperature {C}
  3.08567940719286,                       !- April Surface Ground Temperature {C}
  6.91256312497526,                       !- May Surface Ground Temperature {C}
  10.7216195949507,                       !- June Surface Ground Temperature {C}
  14.0238679822574,                       !- July Surface Ground Temperature {C}
  16.1157611184724,                       !- August Surface Ground Temperature {C}
  16.2934789303462,                       !- September Surface Ground Temperature {C}
  14.5920754632847,                       !- October Surface Ground Temperature {C}
  11.374036348653,                        !- November Surface Ground Temperature {C}
  7.68182621661674;                       !- December Surface Ground Temperature {C}

OS:ThermalZone,
  {a30e224e-c7da-4d25-bda1-111daff46aa9}, !- Handle
  conditioned space,                      !- Name
  1,                                      !- Multiplier
  ,                                       !- Ceiling Height {m}
  692.06373070848,                        !- Volume {m3}
  ,                                       !- Floor Area {m2}
  ,                                       !- Zone Inside Convection Algorithm
  ,                                       !- Zone Outside Convection Algorithm
  ,                                       !- Zone Conditioning Equipment List Name
  {9ccf001b-e736-4d71-92b1-382de8001344}, !- Zone Air Inlet Port List
  {2604de86-dcc9-4aa4-ad74-fad5dc5df854}, !- Zone Air Exhaust Port List
  {d17eb0c0-a9e4-45a3-840a-bc9fc73903de}, !- Zone Air Node Name
  {e7bedc07-630e-4505-84a0-cfd209eb9e04}, !- Zone Return Air Port List
  ,                                       !- Primary Daylighting Control Name
  ,                                       !- Fraction of Zone Controlled by Primary Daylighting Control
  ,                                       !- Secondary Daylighting Control Name
  ,                                       !- Fraction of Zone Controlled by Secondary Daylighting Control
  ,                                       !- Illuminance Map Name
  ,                                       !- Group Rendering Name
  {97f1b32a-f567-4500-8993-3d9b2857b131}, !- Thermostat Name
  No;                                     !- Use Ideal Air Loads

OS:Node,
  {f6717ca9-1619-4bc0-bea8-9287d64834b6}, !- Handle
  Node 1,                                 !- Name
  {d17eb0c0-a9e4-45a3-840a-bc9fc73903de}, !- Inlet Port
  ;                                       !- Outlet Port

OS:Connection,
  {d17eb0c0-a9e4-45a3-840a-bc9fc73903de}, !- Handle
  {a30e224e-c7da-4d25-bda1-111daff46aa9}, !- Source Object
  11,                                     !- Outlet Port
  {f6717ca9-1619-4bc0-bea8-9287d64834b6}, !- Target Object
  2;                                      !- Inlet Port

OS:PortList,
  {9ccf001b-e736-4d71-92b1-382de8001344}, !- Handle
  {a30e224e-c7da-4d25-bda1-111daff46aa9}, !- HVAC Component
  {57eb8d91-1ebd-4df4-b042-a2102f234a58}; !- Port 1

OS:PortList,
  {2604de86-dcc9-4aa4-ad74-fad5dc5df854}, !- Handle
  {a30e224e-c7da-4d25-bda1-111daff46aa9}; !- HVAC Component

OS:PortList,
  {e7bedc07-630e-4505-84a0-cfd209eb9e04}, !- Handle
  {a30e224e-c7da-4d25-bda1-111daff46aa9}, !- HVAC Component
  {95e134af-515f-4b9c-b812-e7e0d65f2153}; !- Port 1

OS:Sizing:Zone,
  {aa3cd5a6-183e-4113-8e8b-854b07818f6d}, !- Handle
  {a30e224e-c7da-4d25-bda1-111daff46aa9}, !- Zone or ZoneList Name
  SupplyAirTemperature,                   !- Zone Cooling Design Supply Air Temperature Input Method
  14,                                     !- Zone Cooling Design Supply Air Temperature {C}
  11.11,                                  !- Zone Cooling Design Supply Air Temperature Difference {deltaC}
  SupplyAirTemperature,                   !- Zone Heating Design Supply Air Temperature Input Method
  40,                                     !- Zone Heating Design Supply Air Temperature {C}
  11.11,                                  !- Zone Heating Design Supply Air Temperature Difference {deltaC}
  0.0085,                                 !- Zone Cooling Design Supply Air Humidity Ratio {kg-H2O/kg-air}
  0.008,                                  !- Zone Heating Design Supply Air Humidity Ratio {kg-H2O/kg-air}
  ,                                       !- Zone Heating Sizing Factor
  ,                                       !- Zone Cooling Sizing Factor
  DesignDay,                              !- Cooling Design Air Flow Method
  ,                                       !- Cooling Design Air Flow Rate {m3/s}
  ,                                       !- Cooling Minimum Air Flow per Zone Floor Area {m3/s-m2}
  ,                                       !- Cooling Minimum Air Flow {m3/s}
  ,                                       !- Cooling Minimum Air Flow Fraction
  DesignDay,                              !- Heating Design Air Flow Method
  ,                                       !- Heating Design Air Flow Rate {m3/s}
  ,                                       !- Heating Maximum Air Flow per Zone Floor Area {m3/s-m2}
  ,                                       !- Heating Maximum Air Flow {m3/s}
  ,                                       !- Heating Maximum Air Flow Fraction
  No,                                     !- Account for Dedicated Outdoor Air System
  NeutralSupplyAir,                       !- Dedicated Outdoor Air System Control Strategy
  autosize,                               !- Dedicated Outdoor Air Low Setpoint Temperature for Design {C}
  autosize,                               !- Dedicated Outdoor Air High Setpoint Temperature for Design {C}
  Sensible Load Only No Latent Load,      !- Zone Load Sizing Method
  HumidityRatioDifference,                !- Zone Latent Cooling Design Supply Air Humidity Ratio Input Method
  ,                                       !- Zone Dehumidification Design Supply Air Humidity Ratio {kgWater/kgDryAir}
  0.005,                                  !- Zone Cooling Design Supply Air Humidity Ratio Difference {kgWater/kgDryAir}
  HumidityRatioDifference,                !- Zone Latent Heating Design Supply Air Humidity Ratio Input Method
  ,                                       !- Zone Humidification Design Supply Air Humidity Ratio {kgWater/kgDryAir}
  0.005,                                  !- Zone Humidification Design Supply Air Humidity Ratio Difference {kgWater/kgDryAir}
  ,                                       !- Zone Humidistat Dehumidification Set Point Schedule Name
  ,                                       !- Zone Humidistat Humidification Set Point Schedule Name
  ,                                       !- Design Zone Air Distribution Effectiveness in Cooling Mode
  ,                                       !- Design Zone Air Distribution Effectiveness in Heating Mode
  ,                                       !- Design Zone Secondary Recirculation Fraction {dimensionless}
  ,                                       !- Design Minimum Zone Ventilation Efficiency {dimensionless}
  Coincident;                             !- Sizing Option

OS:ZoneHVAC:EquipmentList,
  {39cf1ac3-49c4-4169-b868-5f696798d1bf}, !- Handle
  Zone HVAC Equipment List 1,             !- Name
  {a30e224e-c7da-4d25-bda1-111daff46aa9}, !- Thermal Zone
  ,                                       !- Load Distribution Scheme
  {6aa18cfa-6915-4aca-962d-fe33d70bd52c}, !- Zone Equipment 1
  1,                                      !- Zone Equipment Cooling Sequence 1
  1,                                      !- Zone Equipment Heating or No-Load Sequence 1
  {aaf85347-09e4-4e0d-b89d-4d90e1d0a3d8}, !- Zone Equipment Sequential Cooling Fraction Schedule Name 1
  {f98667c2-e045-4e67-831b-5d641092da97}; !- Zone Equipment Sequential Heating Fraction Schedule Name 1

OS:AdditionalProperties,
  {11bef851-df7c-46a3-b963-7cf4ade6da5a}, !- Handle
  {a30e224e-c7da-4d25-bda1-111daff46aa9}, !- Object Name
  ObjectType,                             !- Feature Name 1
  String,                                 !- Feature Data Type 1
  conditioned space;                      !- Feature Value 1

OS:Space,
  {a67807e7-58bd-48be-ad2a-025cde253766}, !- Handle
  conditioned space 1,                    !- Name
  ,                                       !- Space Type Name
  ,                                       !- Default Construction Set Name
  ,                                       !- Default Schedule Set Name
  ,                                       !- Direction of Relative North {deg}
  ,                                       !- X Origin {m}
  ,                                       !- Y Origin {m}
  ,                                       !- Z Origin {m}
  ,                                       !- Building Story Name
  {a30e224e-c7da-4d25-bda1-111daff46aa9}, !- Thermal Zone Name
  ,                                       !- Part of Total Floor Area
  ,                                       !- Design Specification Outdoor Air Object Name
  ,                                       !- Building Unit Name
  692.06373070848;                        !- Volume {m3}

OS:Schedule:Ruleset,
  {581d817b-55c7-49fd-b4a5-448870d7e306}, !- Handle
  heating setpoint,                       !- Name
  {6350e8ce-75b7-4251-a253-8806cd736a46}, !- Schedule Type Limits Name
  {59fc9cce-0b38-4cac-85c4-b4d6a9cda5b2}; !- Default Day Schedule Name

OS:Schedule:Day,
  {59fc9cce-0b38-4cac-85c4-b4d6a9cda5b2}, !- Handle
  heating setpoint default day,           !- Name
  {6350e8ce-75b7-4251-a253-8806cd736a46}, !- Schedule Type Limits Name
  ,                                       !- Interpolate to Timestep
  24,                                     !- Hour 1
  0,                                      !- Minute 1
  0;                                      !- Value Until Time 1

OS:Schedule:Rule,
  {83712939-a947-450b-bef1-1887ad47e953}, !- Handle
  heating setpoint allday rule,           !- Name
  {581d817b-55c7-49fd-b4a5-448870d7e306}, !- Schedule Ruleset Name
  0,                                      !- Rule Order
  {5fead63a-d2ed-4ac9-8390-0d7079d25e02}, !- Day Schedule Name
  Yes,                                    !- Apply Sunday
  Yes,                                    !- Apply Monday
  Yes,                                    !- Apply Tuesday
  Yes,                                    !- Apply Wednesday
  Yes,                                    !- Apply Thursday
  Yes,                                    !- Apply Friday
  Yes,                                    !- Apply Saturday
  DateRange,                              !- Date Specification Type
  1,                                      !- Start Month
  1,                                      !- Start Day
  12,                                     !- End Month
  31;                                     !- End Day

OS:Schedule:Day,
  {5fead63a-d2ed-4ac9-8390-0d7079d25e02}, !- Handle
  heating setpoint day,                   !- Name
  {6350e8ce-75b7-4251-a253-8806cd736a46}, !- Schedule Type Limits Name
  ,                                       !- Interpolate to Timestep
  24,                                     !- Hour 1
  0,                                      !- Minute 1
  20;                                     !- Value Until Time 1

OS:Schedule:Ruleset,
  {6446bc1e-2abf-4538-b097-a6d54482aa26}, !- Handle
  cooling setpoint,                       !- Name
  {6350e8ce-75b7-4251-a253-8806cd736a46}, !- Schedule Type Limits Name
  {49ce9fd3-375f-4b28-8248-aa843464398d}; !- Default Day Schedule Name

OS:Schedule:Day,
  {49ce9fd3-375f-4b28-8248-aa843464398d}, !- Handle
  cooling setpoint default day,           !- Name
  {6350e8ce-75b7-4251-a253-8806cd736a46}, !- Schedule Type Limits Name
  ,                                       !- Interpolate to Timestep
  24,                                     !- Hour 1
  0,                                      !- Minute 1
  0;                                      !- Value Until Time 1

OS:Schedule:Rule,
  {c2d13813-4e4c-44ad-92e9-a72d749bc83d}, !- Handle
  cooling setpoint allday rule,           !- Name
  {6446bc1e-2abf-4538-b097-a6d54482aa26}, !- Schedule Ruleset Name
  0,                                      !- Rule Order
  {bea76e3a-ddfb-4c50-9fd0-1c9438c96ab7}, !- Day Schedule Name
  Yes,                                    !- Apply Sunday
  Yes,                                    !- Apply Monday
  Yes,                                    !- Apply Tuesday
  Yes,                                    !- Apply Wednesday
  Yes,                                    !- Apply Thursday
  Yes,                                    !- Apply Friday
  Yes,                                    !- Apply Saturday
  DateRange,                              !- Date Specification Type
  1,                                      !- Start Month
  1,                                      !- Start Day
  12,                                     !- End Month
  31;                                     !- End Day

OS:Schedule:Day,
  {bea76e3a-ddfb-4c50-9fd0-1c9438c96ab7}, !- Handle
  cooling setpoint day,                   !- Name
  {6350e8ce-75b7-4251-a253-8806cd736a46}, !- Schedule Type Limits Name
  ,                                       !- Interpolate to Timestep
  24,                                     !- Hour 1
  0,                                      !- Minute 1
  25.5555555555556;                       !- Value Until Time 1

OS:ThermostatSetpoint:DualSetpoint,
  {97f1b32a-f567-4500-8993-3d9b2857b131}, !- Handle
  conditioned space temperature setpoint, !- Name
  {581d817b-55c7-49fd-b4a5-448870d7e306}, !- Heating Setpoint Temperature Schedule Name
  {6446bc1e-2abf-4538-b097-a6d54482aa26}, !- Cooling Setpoint Temperature Schedule Name
  0;                                      !- Temperature Difference Between Cutout And Setpoint {deltaC}

OS:ScheduleTypeLimits,
  {6350e8ce-75b7-4251-a253-8806cd736a46}, !- Handle
  Temperature,                            !- Name
  ,                                       !- Lower Limit Value
  ,                                       !- Upper Limit Value
  Continuous,                             !- Numeric Type
  Temperature;                            !- Unit Type

OS:Surface,
  {d22ebb60-26f1-4236-bfe3-c126629f28fb}, !- Handle
  Roof1,                                  !- Name
  RoofCeiling,                            !- Surface Type
  {07be967a-9c50-4664-95de-c6845518464a}, !- Construction Name
  {4454a5d1-50aa-478f-91fe-03391a3237f8}, !- Space Name
  Outdoors,                               !- Outside Boundary Condition
  ,                                       !- Outside Boundary Condition Object
  SunExposed,                             !- Sun Exposure
  WindExposed,                            !- Wind Exposure
  ,                                       !- View Factor to Ground
  ,                                       !- Number of Vertices
  -26.9347048849634, 58.0557891618865, 2.4384, !- X,Y,Z Vertex 1 {m}
  -26.9347048849634, 46.7895631136661, 8.0715130241102, !- X,Y,Z Vertex 2 {m}
  -14.3386812381136, 46.7895631136661, 8.0715130241102, !- X,Y,Z Vertex 3 {m}
  -14.3386812381136, 58.0557891618865, 2.4384; !- X,Y,Z Vertex 4 {m}

OS:AdditionalProperties,
  {000211ce-b3d6-4ceb-bbf7-3dda563daf3f}, !- Handle
  {d22ebb60-26f1-4236-bfe3-c126629f28fb}, !- Object Name
  Length,                                 !- Feature Name 1
  Double,                                 !- Feature Data Type 1
  41.325536899113608,                     !- Feature Value 1
  Width,                                  !- Feature Name 2
  Double,                                 !- Feature Data Type 2
  41.325536899113601,                     !- Feature Value 2
  Azimuth,                                !- Feature Name 3
  Integer,                                !- Feature Data Type 3
  0,                                      !- Feature Value 3
  Tilt,                                   !- Feature Name 4
  Double,                                 !- Feature Data Type 4
  0.5,                                    !- Feature Value 4
  SurfaceType,                            !- Feature Name 5
  String,                                 !- Feature Data Type 5
  Roof;                                   !- Feature Value 5

OS:ThermalZone,
  {a1872414-8362-43f3-8d41-7022a9e61c36}, !- Handle
  attic - vented,                         !- Name
  1,                                      !- Multiplier
  ,                                       !- Ceiling Height {m}
  356.389957095237,                       !- Volume {m3}
  ,                                       !- Floor Area {m2}
  ,                                       !- Zone Inside Convection Algorithm
  ,                                       !- Zone Outside Convection Algorithm
  ,                                       !- Zone Conditioning Equipment List Name
  {049b575c-78ae-4182-80bd-648a38abee32}, !- Zone Air Inlet Port List
  {76f9213f-8249-44e5-ab6e-4db1f8495562}, !- Zone Air Exhaust Port List
  {9054fdf2-20ed-4cd8-868a-eaeabfc7ec2f}, !- Zone Air Node Name
  {fdc622cd-2adb-44ea-a626-fccf549afdb7}, !- Zone Return Air Port List
  ,                                       !- Primary Daylighting Control Name
  ,                                       !- Fraction of Zone Controlled by Primary Daylighting Control
  ,                                       !- Secondary Daylighting Control Name
  ,                                       !- Fraction of Zone Controlled by Secondary Daylighting Control
  ,                                       !- Illuminance Map Name
  ,                                       !- Group Rendering Name
  ,                                       !- Thermostat Name
  No;                                     !- Use Ideal Air Loads

OS:Node,
  {d98daac0-a339-41a0-a212-2ba07f5b882a}, !- Handle
  Node 2,                                 !- Name
  {9054fdf2-20ed-4cd8-868a-eaeabfc7ec2f}, !- Inlet Port
  ;                                       !- Outlet Port

OS:Connection,
  {9054fdf2-20ed-4cd8-868a-eaeabfc7ec2f}, !- Handle
  {a1872414-8362-43f3-8d41-7022a9e61c36}, !- Source Object
  11,                                     !- Outlet Port
  {d98daac0-a339-41a0-a212-2ba07f5b882a}, !- Target Object
  2;                                      !- Inlet Port

OS:PortList,
  {049b575c-78ae-4182-80bd-648a38abee32}, !- Handle
  {a1872414-8362-43f3-8d41-7022a9e61c36}; !- HVAC Component

OS:PortList,
  {76f9213f-8249-44e5-ab6e-4db1f8495562}, !- Handle
  {a1872414-8362-43f3-8d41-7022a9e61c36}; !- HVAC Component

OS:PortList,
  {fdc622cd-2adb-44ea-a626-fccf549afdb7}, !- Handle
  {a1872414-8362-43f3-8d41-7022a9e61c36}; !- HVAC Component

OS:Sizing:Zone,
  {1e40c2ad-d2ce-4e50-95e6-5938d4d6e842}, !- Handle
  {a1872414-8362-43f3-8d41-7022a9e61c36}, !- Zone or ZoneList Name
  SupplyAirTemperature,                   !- Zone Cooling Design Supply Air Temperature Input Method
  14,                                     !- Zone Cooling Design Supply Air Temperature {C}
  11.11,                                  !- Zone Cooling Design Supply Air Temperature Difference {deltaC}
  SupplyAirTemperature,                   !- Zone Heating Design Supply Air Temperature Input Method
  40,                                     !- Zone Heating Design Supply Air Temperature {C}
  11.11,                                  !- Zone Heating Design Supply Air Temperature Difference {deltaC}
  0.0085,                                 !- Zone Cooling Design Supply Air Humidity Ratio {kg-H2O/kg-air}
  0.008,                                  !- Zone Heating Design Supply Air Humidity Ratio {kg-H2O/kg-air}
  ,                                       !- Zone Heating Sizing Factor
  ,                                       !- Zone Cooling Sizing Factor
  DesignDay,                              !- Cooling Design Air Flow Method
  ,                                       !- Cooling Design Air Flow Rate {m3/s}
  ,                                       !- Cooling Minimum Air Flow per Zone Floor Area {m3/s-m2}
  ,                                       !- Cooling Minimum Air Flow {m3/s}
  ,                                       !- Cooling Minimum Air Flow Fraction
  DesignDay,                              !- Heating Design Air Flow Method
  ,                                       !- Heating Design Air Flow Rate {m3/s}
  ,                                       !- Heating Maximum Air Flow per Zone Floor Area {m3/s-m2}
  ,                                       !- Heating Maximum Air Flow {m3/s}
  ,                                       !- Heating Maximum Air Flow Fraction
  No,                                     !- Account for Dedicated Outdoor Air System
  NeutralSupplyAir,                       !- Dedicated Outdoor Air System Control Strategy
  autosize,                               !- Dedicated Outdoor Air Low Setpoint Temperature for Design {C}
  autosize,                               !- Dedicated Outdoor Air High Setpoint Temperature for Design {C}
  Sensible Load Only No Latent Load,      !- Zone Load Sizing Method
  HumidityRatioDifference,                !- Zone Latent Cooling Design Supply Air Humidity Ratio Input Method
  ,                                       !- Zone Dehumidification Design Supply Air Humidity Ratio {kgWater/kgDryAir}
  0.005,                                  !- Zone Cooling Design Supply Air Humidity Ratio Difference {kgWater/kgDryAir}
  HumidityRatioDifference,                !- Zone Latent Heating Design Supply Air Humidity Ratio Input Method
  ,                                       !- Zone Humidification Design Supply Air Humidity Ratio {kgWater/kgDryAir}
  0.005,                                  !- Zone Humidification Design Supply Air Humidity Ratio Difference {kgWater/kgDryAir}
  ,                                       !- Zone Humidistat Dehumidification Set Point Schedule Name
  ,                                       !- Zone Humidistat Humidification Set Point Schedule Name
  ,                                       !- Design Zone Air Distribution Effectiveness in Cooling Mode
  ,                                       !- Design Zone Air Distribution Effectiveness in Heating Mode
  ,                                       !- Design Zone Secondary Recirculation Fraction {dimensionless}
  ,                                       !- Design Minimum Zone Ventilation Efficiency {dimensionless}
  Coincident;                             !- Sizing Option

OS:ZoneHVAC:EquipmentList,
  {d79cf90c-477d-4311-aec2-b3754d023b8f}, !- Handle
  Zone HVAC Equipment List 2,             !- Name
  {a1872414-8362-43f3-8d41-7022a9e61c36}; !- Thermal Zone

OS:AdditionalProperties,
  {512180eb-56af-4a28-af43-513c6dfb13b3}, !- Handle
  {a1872414-8362-43f3-8d41-7022a9e61c36}, !- Object Name
  ObjectType,                             !- Feature Name 1
  String,                                 !- Feature Data Type 1
  attic - vented;                         !- Feature Value 1

OS:Space,
  {4454a5d1-50aa-478f-91fe-03391a3237f8}, !- Handle
  attic - vented 1,                       !- Name
  ,                                       !- Space Type Name
  ,                                       !- Default Construction Set Name
  ,                                       !- Default Schedule Set Name
  ,                                       !- Direction of Relative North {deg}
  ,                                       !- X Origin {m}
  ,                                       !- Y Origin {m}
  ,                                       !- Z Origin {m}
  ,                                       !- Building Story Name
  {a1872414-8362-43f3-8d41-7022a9e61c36}, !- Thermal Zone Name
  ,                                       !- Part of Total Floor Area
  ,                                       !- Design Specification Outdoor Air Object Name
  ,                                       !- Building Unit Name
  356.389957095237;                       !- Volume {m3}

OS:Material,
  {2df59df1-6bd4-4936-83bc-fd835a4d2f28}, !- Handle
  asphalt or fiberglass shingles,         !- Name
  Rough,                                  !- Roughness
  0.00635,                                !- Thickness {m}
  0.162714,                               !- Conductivity {W/m-K}
  1121.4,                                 !- Density {kg/m3}
  1465.45,                                !- Specific Heat {J/kg-K}
  0.9,                                    !- Thermal Absorptance
  0.85,                                   !- Solar Absorptance