
OS:Version,
  {2e2ef300-d6da-4292-ab69-f3375a5bb8d2}, !- Handle
  3.10.0;                                 !- Version Identifier

OS:SimulationControl,
  {2d319185-3f7f-4070-9d77-e5b69da0ba6a}, !- Handle
  ,                                       !- Do Zone Sizing Calculation
  ,                                       !- Do System Sizing Calculation
  ,                                       !- Do Plant Sizing Calculation
  No;                                     !- Run Simulation for Sizing Periods

OS:Timestep,
  {1941104c-e120-4c87-8dfb-cdd3007019a2}, !- Handle
  1;                                      !- Number of Timesteps per Hour

OS:ShadowCalculation,
  {c0ca76c9-6386-4c5e-80c7-70d53f747cbe}, !- Handle
  PolygonClipping,                        !- Shading Calculation Method
  ,                                       !- Shading Calculation Update Frequency Method
  20,                                     !- Shading Calculation Update Frequency
  200,                                    !- Maximum Figures in Shadow Overlap Calculations
  ,                                       !- Polygon Clipping Algorithm
  512,                                    !- Pixel Counting Resolution
  ,                                       !- Sky Diffuse Modeling Algorithm
  No,                                     !- Output External Shading Calculation Results
  No,                                     !- Disable Self-Shading Within Shading Zone Groups
  No;                                     !- Disable Self-Shading From Shading Zone Groups to Other Zones

OS:SurfaceConvectionAlgorithm:Outside,
  {e893540f-a7ab-4018-a113-6482ecac2cbd}, !- Handle
  DOE-2;                                  !- Algorithm

OS:SurfaceConvectionAlgorithm:Inside,
  {9588e208-da90-428b-9745-a99810cf42f9}, !- Handle
  TARP;                                   !- Algorithm

OS:ZoneCapacitanceMultiplier:ResearchSpecial,
  {e09dc34c-bd90-4cb7-ba43-7279bd8b9ea4}, !- Handle
  7,                                      !- Temperature Capacity Multiplier
  15,                                     !- Humidity Capacity Multiplier
  ;                                       !- Carbon Dioxide Capacity Multiplier

OS:ConvergenceLimits,
  {8024a446-cf58-48b7-b5d5-bb90b33bd81f}, !- Handle
  0;                                      !- Minimum System Timestep {minutes}

OS:RunPeriod,
  {bf1479d5-824b-4edf-ba98-1f1afa90ff9f}, !- Handle
  Run Period 1,                           !- Name
  1,                                      !- Begin Month
  1,                                      !- Begin Day of Month
  12,                                     !- End Month
  31,                                     !- End Day of Month
  ,                                       !- Use Weather File Holidays and Special Days
  ,                                       !- Use Weather File Daylight Saving Period
  ,                                       !- Apply Weekend Holiday Rule
  ,                                       !- Use Weather File Rain Indicators
  ,                                       !- Use Weather File Snow Indicators
  ;                                       !- Number of Times Runperiod to be Repeated

OS:PerformancePrecisionTradeoffs,
  {a6c8dfb9-7133-4659-a6d2-4fcc393cb5e8}, !- Handle
  ,                                       !- Use Coil Direct Solutions
  CarrollMRT;                             !- Zone Radiant Exchange Algorithm

OS:WeatherFile,
  {fb88443e-9053-4df4-82e4-deb3138c6cca}, !- Handle
  Buffalo Niagara Intl Ap,                !- City
  NY,                                     !- State Province Region
  USA,                                    !- Country
  TMY3,                                   !- Data Source
  725280,                                 !- WMO Number
  42.93,                                  !- Latitude {deg}
  -78.73,                                 !- Longitude {deg}
  -5,                                     !- Time Zone {hr}
  215,                                    !- Elevation {m}
  /Users/nmoore/github/urbanopt-example-geojson-project/example_project/weather/USA_NY_Buffalo-Greater.Buffalo.Intl.AP.725280_TMY3.epw, !- Url
  6B50E0FF,                               !- Checksum
  ,                                       !- Start Date Actual Year
  Sunday;                                 !- Start Day of Week

OS:YearDescription,
  {bc6cfb52-5e21-414b-9830-b96cf73506c6}, !- Handle
  2007,                                   !- Calendar Year
  ,                                       !- Day of Week for Start Day
  ;                                       !- Is Leap Year

OS:Site,
  {73160b7f-c1dc-4d7d-b07e-fc97fd7cd497}, !- Handle
  Buffalo Niagara Intl Ap_NY,             !- Name
  42.93,                                  !- Latitude {deg}
  -78.73,                                 !- Longitude {deg}
  -5,                                     !- Time Zone {hr}
  215,                                    !- Elevation {m}
  Suburbs,                                !- Terrain
  Yes;                                    !- Keep Site Location Information

OS:RunPeriodControl:DaylightSavingTime,
  {e351b151-837b-477e-ad46-48998e917f30}, !- Handle
  Mar 12,                                 !- Start Date
  Nov 5;                                  !- End Date

OS:Site:GroundTemperature:Shallow,
  {7f5a9dbd-f43f-40d5-886e-637f33fa0255}, !- Handle
  4.30207395723828,                       !- January Surface Ground Temperature {C}
  2.29327249652502,                       !- February Surface Ground Temperature {C}
  2.13240047156047,                       !- March Surface Ground Temperature {C}
  3.08567940719286,                       !- April Surface Ground Temperature {C}
  6.91256312497526,                       !- May Surface Ground Temperature {C}
  10.7216195949507,                       !- June Surface Ground Temperature {C}
  14.0238679822574,                       !- July Surface Ground Temperature {C}
  16.1157611184724,                       !- August Surface Ground Temperature {C}
  16.2934789303462,                       !- September Surface Ground Temperature {C}
  14.5920754632847,                       !- October Surface Ground Temperature {C}
  11.374036348653,                        !- November Surface Ground Temperature {C}
  7.68182621661674;                       !- December Surface Ground Temperature {C}

OS:ThermalZone,
  {b4b3a37d-cd10-4e98-aae1-0eec3c0f2b11}, !- Handle
  conditioned space,                      !- Name
  1,                                      !- Multiplier
  ,                                       !- Ceiling Height {m}
  692.06373070848,                        !- Volume {m3}
  ,                                       !- Floor Area {m2}
  ,                                       !- Zone Inside Convection Algorithm
  ,                                       !- Zone Outside Convection Algorithm
  ,                                       !- Zone Conditioning Equipment List Name
  {b002eb4c-666c-4b2d-964c-100a2d80e405}, !- Zone Air Inlet Port List
  {d57689d2-0011-49df-acef-1c080a0c4052}, !- Zone Air Exhaust Port List
  {e9824008-afb9-47ad-93bd-d96bfccd44ef}, !- Zone Air Node Name
  {0500f131-8ea7-4d7a-aa2c-3f8c1abab38c}, !- Zone Return Air Port List
  ,                                       !- Primary Daylighting Control Name
  ,                                       !- Fraction of Zone Controlled by Primary Daylighting Control
  ,                                       !- Secondary Daylighting Control Name
  ,                                       !- Fraction of Zone Controlled by Secondary Daylighting Control
  ,                                       !- Illuminance Map Name
  ,                                       !- Group Rendering Name
  {3da09dda-4867-4b98-9a16-b257b71b3a37}, !- Thermostat Name
  No;                                     !- Use Ideal Air Loads

OS:Node,
  {dd03a51a-14a6-4146-b5cb-13ffc792e4a9}, !- Handle
  Node 1,                                 !- Name
  {e9824008-afb9-47ad-93bd-d96bfccd44ef}, !- Inlet Port
  ;                                       !- Outlet Port

OS:Connection,
  {e9824008-afb9-47ad-93bd-d96bfccd44ef}, !- Handle
  {b4b3a37d-cd10-4e98-aae1-0eec3c0f2b11}, !- Source Object
  11,                                     !- Outlet Port
  {dd03a51a-14a6-4146-b5cb-13ffc792e4a9}, !- Target Object
  2;                                      !- Inlet Port

OS:PortList,
  {b002eb4c-666c-4b2d-964c-100a2d80e405}, !- Handle
  {b4b3a37d-cd10-4e98-aae1-0eec3c0f2b11}, !- HVAC Component
  {20248d6e-01a9-499b-8a77-a47369214172}; !- Port 1

OS:PortList,
  {d57689d2-0011-49df-acef-1c080a0c4052}, !- Handle
  {b4b3a37d-cd10-4e98-aae1-0eec3c0f2b11}; !- HVAC Component

OS:PortList,
  {0500f131-8ea7-4d7a-aa2c-3f8c1abab38c}, !- Handle
  {b4b3a37d-cd10-4e98-aae1-0eec3c0f2b11}, !- HVAC Component
  {0071edab-ce37-43e7-b4c2-05ea56aae65c}; !- Port 1

OS:Sizing:Zone,
  {88e529f9-bc37-454f-a77f-9fa53162e0c7}, !- Handle
  {b4b3a37d-cd10-4e98-aae1-0eec3c0f2b11}, !- Zone or ZoneList Name
  SupplyAirTemperature,                   !- Zone Cooling Design Supply Air Temperature Input Method
  14,                                     !- Zone Cooling Design Supply Air Temperature {C}
  11.11,                                  !- Zone Cooling Design Supply Air Temperature Difference {deltaC}
  SupplyAirTemperature,                   !- Zone Heating Design Supply Air Temperature Input Method
  40,                                     !- Zone Heating Design Supply Air Temperature {C}
  11.11,                                  !- Zone Heating Design Supply Air Temperature Difference {deltaC}
  0.0085,                                 !- Zone Cooling Design Supply Air Humidity Ratio {kg-H2O/kg-air}
  0.008,                                  !- Zone Heating Design Supply Air Humidity Ratio {kg-H2O/kg-air}
  ,                                       !- Zone Heating Sizing Factor
  ,                                       !- Zone Cooling Sizing Factor
  DesignDay,                              !- Cooling Design Air Flow Method
  ,                                       !- Cooling Design Air Flow Rate {m3/s}
  ,                                       !- Cooling Minimum Air Flow per Zone Floor Area {m3/s-m2}
  ,                                       !- Cooling Minimum Air Flow {m3/s}
  ,                                       !- Cooling Minimum Air Flow Fraction
  DesignDay,                              !- Heating Design Air Flow Method
  ,                                       !- Heating Design Air Flow Rate {m3/s}
  ,                                       !- Heating Maximum Air Flow per Zone Floor Area {m3/s-m2}
  ,                                       !- Heating Maximum Air Flow {m3/s}
  ,                                       !- Heating Maximum Air Flow Fraction
  No,                                     !- Account for Dedicated Outdoor Air System
  NeutralSupplyAir,                       !- Dedicated Outdoor Air System Control Strategy
  autosize,                               !- Dedicated Outdoor Air Low Setpoint Temperature for Design {C}
  autosize,                               !- Dedicated Outdoor Air High Setpoint Temperature for Design {C}
  Sensible Load Only No Latent Load,      !- Zone Load Sizing Method
  HumidityRatioDifference,                !- Zone Latent Cooling Design Supply Air Humidity Ratio Input Method
  ,                                       !- Zone Dehumidification Design Supply Air Humidity Ratio {kgWater/kgDryAir}
  0.005,                                  !- Zone Cooling Design Supply Air Humidity Ratio Difference {kgWater/kgDryAir}
  HumidityRatioDifference,                !- Zone Latent Heating Design Supply Air Humidity Ratio Input Method
  ,                                       !- Zone Humidification Design Supply Air Humidity Ratio {kgWater/kgDryAir}
  0.005,                                  !- Zone Humidification Design Supply Air Humidity Ratio Difference {kgWater/kgDryAir}
  ,                                       !- Zone Humidistat Dehumidification Set Point Schedule Name
  ,                                       !- Zone Humidistat Humidification Set Point Schedule Name
  ,                                       !- Design Zone Air Distribution Effectiveness in Cooling Mode
  ,                                       !- Design Zone Air Distribution Effectiveness in Heating Mode
  ,                                       !- Design Zone Secondary Recirculation Fraction {dimensionless}
  ,                                       !- Design Minimum Zone Ventilation Efficiency {dimensionless}
  Coincident;                             !- Sizing Option

OS:ZoneHVAC:EquipmentList,
  {646adce9-b8f4-4b98-9b1a-7b0376567a6c}, !- Handle
  Zone HVAC Equipment List 1,             !- Name
  {b4b3a37d-cd10-4e98-aae1-0eec3c0f2b11}, !- Thermal Zone
  ,                                       !- Load Distribution Scheme
  {05a61a9d-92bb-4578-a6cf-0685efd13785}, !- Zone Equipment 1
  1,                                      !- Zone Equipment Cooling Sequence 1
  1,                                      !- Zone Equipment Heating or No-Load Sequence 1
  {2dbdee11-04ce-4201-8cb2-dc2a97116382}, !- Zone Equipment Sequential Cooling Fraction Schedule Name 1
  {18f62cae-a051-4242-b36d-74fbd513bd47}; !- Zone Equipment Sequential Heating Fraction Schedule Name 1

OS:AdditionalProperties,
  {b8e6b552-c671-4a5b-942a-83d04d536e9f}, !- Handle
  {b4b3a37d-cd10-4e98-aae1-0eec3c0f2b11}, !- Object Name
  ObjectType,                             !- Feature Name 1
  String,                                 !- Feature Data Type 1
  conditioned space;                      !- Feature Value 1

OS:Space,
  {56dd9234-0915-4381-98e6-edb6aad46cf1}, !- Handle
  conditioned space 1,                    !- Name
  ,                                       !- Space Type Name
  ,                                       !- Default Construction Set Name
  ,                                       !- Default Schedule Set Name
  ,                                       !- Direction of Relative North {deg}
  ,                                       !- X Origin {m}
  ,                                       !- Y Origin {m}
  ,                                       !- Z Origin {m}
  ,                                       !- Building Story Name
  {b4b3a37d-cd10-4e98-aae1-0eec3c0f2b11}, !- Thermal Zone Name
  ,                                       !- Part of Total Floor Area
  ,                                       !- Design Specification Outdoor Air Object Name
  ,                                       !- Building Unit Name
  692.06373070848;                        !- Volume {m3}

OS:Schedule:Ruleset,
  {0e062242-163e-4101-a32a-a0c0eea137c4}, !- Handle
  heating setpoint,                       !- Name
  {84940bb5-dcbd-4551-8238-76305b3275dd}, !- Schedule Type Limits Name
  {266f5375-841e-4bd8-b8fc-550631579bbf}; !- Default Day Schedule Name

OS:Schedule:Day,
  {266f5375-841e-4bd8-b8fc-550631579bbf}, !- Handle
  heating setpoint default day,           !- Name
  {84940bb5-dcbd-4551-8238-76305b3275dd}, !- Schedule Type Limits Name
  ,                                       !- Interpolate to Timestep
  24,                                     !- Hour 1
  0,                                      !- Minute 1
  0;                                      !- Value Until Time 1

OS:Schedule:Rule,
  {0200245e-2a25-4ae7-aedb-82098537d069}, !- Handle
  heating setpoint allday rule,           !- Name
  {0e062242-163e-4101-a32a-a0c0eea137c4}, !- Schedule Ruleset Name
  0,                                      !- Rule Order
  {580e0c9e-fb1a-4726-ba13-19a93316d136}, !- Day Schedule Name
  Yes,                                    !- Apply Sunday
  Yes,                                    !- Apply Monday
  Yes,                                    !- Apply Tuesday
  Yes,                                    !- Apply Wednesday
  Yes,                                    !- Apply Thursday
  Yes,                                    !- Apply Friday
  Yes,                                    !- Apply Saturday
  DateRange,                              !- Date Specification Type
  1,                                      !- Start Month
  1,                                      !- Start Day
  12,                                     !- End Month
  31;                                     !- End Day

OS:Schedule:Day,
  {580e0c9e-fb1a-4726-ba13-19a93316d136}, !- Handle
  heating setpoint day,                   !- Name
  {84940bb5-dcbd-4551-8238-76305b3275dd}, !- Schedule Type Limits Name
  ,                                       !- Interpolate to Timestep
  24,                                     !- Hour 1
  0,                                      !- Minute 1
  20;                                     !- Value Until Time 1

OS:Schedule:Ruleset,
  {a86eb04f-c514-48df-aae8-958bf40c7b29}, !- Handle
  cooling setpoint,                       !- Name
  {84940bb5-dcbd-4551-8238-76305b3275dd}, !- Schedule Type Limits Name
  {11ff1bfa-c7e5-43b8-a588-bca54c14bf9c}; !- Default Day Schedule Name

OS:Schedule:Day,
  {11ff1bfa-c7e5-43b8-a588-bca54c14bf9c}, !- Handle
  cooling setpoint default day,           !- Name
  {84940bb5-dcbd-4551-8238-76305b3275dd}, !- Schedule Type Limits Name
  ,                                       !- Interpolate to Timestep
  24,                                     !- Hour 1
  0,                                      !- Minute 1
  0;                                      !- Value Until Time 1

OS:Schedule:Rule,
  {ba36fe5d-5768-43e4-aa27-6ea43db73ad4}, !- Handle
  cooling setpoint allday rule,           !- Name
  {a86eb04f-c514-48df-aae8-958bf40c7b29}, !- Schedule Ruleset Name
  0,                                      !- Rule Order
  {9d6c656f-8944-45df-91ea-9e8999118e10}, !- Day Schedule Name
  Yes,                                    !- Apply Sunday
  Yes,                                    !- Apply Monday
  Yes,                                    !- Apply Tuesday
  Yes,                                    !- Apply Wednesday
  Yes,                                    !- Apply Thursday
  Yes,                                    !- Apply Friday
  Yes,                                    !- Apply Saturday
  DateRange,                              !- Date Specification Type
  1,                                      !- Start Month
  1,                                      !- Start Day
  12,                                     !- End Month
  31;                                     !- End Day

OS:Schedule:Day,
  {9d6c656f-8944-45df-91ea-9e8999118e10}, !- Handle
  cooling setpoint day,                   !- Name
  {84940bb5-dcbd-4551-8238-76305b3275dd}, !- Schedule Type Limits Name
  ,                                       !- Interpolate to Timestep
  24,                                     !- Hour 1
  0,                                      !- Minute 1
  25.5555555555556;                       !- Value Until Time 1

OS:ThermostatSetpoint:DualSetpoint,
  {3da09dda-4867-4b98-9a16-b257b71b3a37}, !- Handle
  conditioned space temperature setpoint, !- Name
  {0e062242-163e-4101-a32a-a0c0eea137c4}, !- Heating Setpoint Temperature Schedule Name
  {a86eb04f-c514-48df-aae8-958bf40c7b29}, !- Cooling Setpoint Temperature Schedule Name
  0;                                      !- Temperature Difference Between Cutout And Setpoint {deltaC}

OS:ScheduleTypeLimits,
  {84940bb5-dcbd-4551-8238-76305b3275dd}, !- Handle
  Temperature,                            !- Name
  ,                                       !- Lower Limit Value
  ,                                       !- Upper Limit Value
  Continuous,                             !- Numeric Type
  Temperature;                            !- Unit Type

OS:Surface,
  {e5a80c56-175b-4df0-be56-382fb72adc20}, !- Handle
  Roof1,                                  !- Name
  RoofCeiling,                            !- Surface Type
  {c151ecb7-cdc0-4fca-a206-eb9791ee66a5}, !- Construction Name
  {773a3dc7-effc-462a-9a64-05e5ad35cc52}, !- Space Name
  Outdoors,                               !- Outside Boundary Condition
  ,                                       !- Outside Boundary Condition Object
  SunExposed,                             !- Sun Exposure
  WindExposed,                            !- Wind Exposure
  ,                                       !- View Factor to Ground
  ,                                       !- Number of Vertices
  -26.9347048849634, 58.0557891618865, 2.4384, !- X,Y,Z Vertex 1 {m}
  -26.9347048849634, 46.7895631136661, 8.0715130241102, !- X,Y,Z Vertex 2 {m}
  -14.3386812381136, 46.7895631136661, 8.0715130241102, !- X,Y,Z Vertex 3 {m}
  -14.3386812381136, 58.0557891618865, 2.4384; !- X,Y,Z Vertex 4 {m}

OS:AdditionalProperties,
  {9534e171-53a6-4b98-a828-e486f93cc383}, !- Handle
  {e5a80c56-175b-4df0-be56-382fb72adc20}, !- Object Name
  Length,                                 !- Feature Name 1
  Double,                                 !- Feature Data Type 1
  41.325536899113608,                     !- Feature Value 1
  Width,                                  !- Feature Name 2
  Double,                                 !- Feature Data Type 2
  41.325536899113601,                     !- Feature Value 2
  Azimuth,                                !- Feature Name 3
  Integer,                                !- Feature Data Type 3
  0,                                      !- Feature Value 3
  Tilt,                                   !- Feature Name 4
  Double,                                 !- Feature Data Type 4
  0.5,                                    !- Feature Value 4
  SurfaceType,                            !- Feature Name 5
  String,                                 !- Feature Data Type 5
  Roof;                                   !- Feature Value 5

OS:ThermalZone,
  {adbf8ee8-4abb-498a-94e6-e84903bf8b0e}, !- Handle
  attic - vented,                         !- Name
  1,                                      !- Multiplier
  ,                                       !- Ceiling Height {m}
  356.390921899745,                       !- Volume {m3}
  ,                                       !- Floor Area {m2}
  ,                                       !- Zone Inside Convection Algorithm
  ,                                       !- Zone Outside Convection Algorithm
  ,                                       !- Zone Conditioning Equipment List Name
  {f54cf685-fa00-4909-9788-8d5314a2cd91}, !- Zone Air Inlet Port List
  {e1ac9a7d-a3b0-431e-b1de-246b03472b41}, !- Zone Air Exhaust Port List
  {aae6b59d-a011-4d61-a92c-95df9a66ab8b}, !- Zone Air Node Name
  {32c8cbf1-b528-4da5-a0f3-27bed77505b6}, !- Zone Return Air Port List
  ,                                       !- Primary Daylighting Control Name
  ,                                       !- Fraction of Zone Controlled by Primary Daylighting Control
  ,                                       !- Secondary Daylighting Control Name
  ,                                       !- Fraction of Zone Controlled by Secondary Daylighting Control
  ,                                       !- Illuminance Map Name
  ,                                       !- Group Rendering Name
  ,                                       !- Thermostat Name
  No;                                     !- Use Ideal Air Loads

OS:Node,
  {5443301c-4cc0-40b2-b566-20b17a87bcc1}, !- Handle
  Node 2,                                 !- Name
  {aae6b59d-a011-4d61-a92c-95df9a66ab8b}, !- Inlet Port
  ;                                       !- Outlet Port

OS:Connection,
  {aae6b59d-a011-4d61-a92c-95df9a66ab8b}, !- Handle
  {adbf8ee8-4abb-498a-94e6-e84903bf8b0e}, !- Source Object
  11,                                     !- Outlet Port
  {5443301c-4cc0-40b2-b566-20b17a87bcc1}, !- Target Object
  2;                                      !- Inlet Port

OS:PortList,
  {f54cf685-fa00-4909-9788-8d5314a2cd91}, !- Handle
  {adbf8ee8-4abb-498a-94e6-e84903bf8b0e}; !- HVAC Component

OS:PortList,
  {e1ac9a7d-a3b0-431e-b1de-246b03472b41}, !- Handle
  {adbf8ee8-4abb-498a-94e6-e84903bf8b0e}; !- HVAC Component

OS:PortList,
  {32c8cbf1-b528-4da5-a0f3-27bed77505b6}, !- Handle
  {adbf8ee8-4abb-498a-94e6-e84903bf8b0e}; !- HVAC Component

OS:Sizing:Zone,
  {4eea7182-f483-457c-8364-a9d9f526ee46}, !- Handle
  {adbf8ee8-4abb-498a-94e6-e84903bf8b0e}, !- Zone or ZoneList Name
  SupplyAirTemperature,                   !- Zone Cooling Design Supply Air Temperature Input Method
  14,                                     !- Zone Cooling Design Supply Air Temperature {C}
  11.11,                                  !- Zone Cooling Design Supply Air Temperature Difference {deltaC}
  SupplyAirTemperature,                   !- Zone Heating Design Supply Air Temperature Input Method
  40,                                     !- Zone Heating Design Supply Air Temperature {C}
  11.11,                                  !- Zone Heating Design Supply Air Temperature Difference {deltaC}
  0.0085,                                 !- Zone Cooling Design Supply Air Humidity Ratio {kg-H2O/kg-air}
  0.008,                                  !- Zone Heating Design Supply Air Humidity Ratio {kg-H2O/kg-air}
  ,                                       !- Zone Heating Sizing Factor
  ,                                       !- Zone Cooling Sizing Factor
  DesignDay,                              !- Cooling Design Air Flow Method
  ,                                       !- Cooling Design Air Flow Rate {m3/s}
  ,                                       !- Cooling Minimum Air Flow per Zone Floor Area {m3/s-m2}
  ,                                       !- Cooling Minimum Air Flow {m3/s}
  ,                                       !- Cooling Minimum Air Flow Fraction
  DesignDay,                              !- Heating Design Air Flow Method
  ,                                       !- Heating Design Air Flow Rate {m3/s}
  ,                                       !- Heating Maximum Air Flow per Zone Floor Area {m3/s-m2}
  ,                                       !- Heating Maximum Air Flow {m3/s}
  ,                                       !- Heating Maximum Air Flow Fraction
  No,                                     !- Account for Dedicated Outdoor Air System
  NeutralSupplyAir,                       !- Dedicated Outdoor Air System Control Strategy
  autosize,                               !- Dedicated Outdoor Air Low Setpoint Temperature for Design {C}
  autosize,                               !- Dedicated Outdoor Air High Setpoint Temperature for Design {C}
  Sensible Load Only No Latent Load,      !- Zone Load Sizing Method
  HumidityRatioDifference,                !- Zone Latent Cooling Design Supply Air Humidity Ratio Input Method
  ,                                       !- Zone Dehumidification Design Supply Air Humidity Ratio {kgWater/kgDryAir}
  0.005,                                  !- Zone Cooling Design Supply Air Humidity Ratio Difference {kgWater/kgDryAir}
  HumidityRatioDifference,                !- Zone Latent Heating Design Supply Air Humidity Ratio Input Method
  ,                                       !- Zone Humidification Design Supply Air Humidity Ratio {kgWater/kgDryAir}
  0.005,                                  !- Zone Humidification Design Supply Air Humidity Ratio Difference {kgWater/kgDryAir}
  ,                                       !- Zone Humidistat Dehumidification Set Point Schedule Name
  ,                                       !- Zone Humidistat Humidification Set Point Schedule Name
  ,                                       !- Design Zone Air Distribution Effectiveness in Cooling Mode
  ,                                       !- Design Zone Air Distribution Effectiveness in Heating Mode
  ,                                       !- Design Zone Secondary Recirculation Fraction {dimensionless}
  ,                                       !- Design Minimum Zone Ventilation Efficiency {dimensionless}
  Coincident;                             !- Sizing Option

OS:ZoneHVAC:EquipmentList,
  {4957cc04-8a2d-4216-bb4b-052303e0b923}, !- Handle
  Zone HVAC Equipment List 2,             !- Name
  {adbf8ee8-4abb-498a-94e6-e84903bf8b0e}; !- Thermal Zone

OS:AdditionalProperties,
  {013bb45c-f2b5-480d-b9d4-32449c622ec0}, !- Handle
  {adbf8ee8-4abb-498a-94e6-e84903bf8b0e}, !- Object Name
  ObjectType,                             !- Feature Name 1
  String,                                 !- Feature Data Type 1
  attic - vented;                         !- Feature Value 1

OS:Space,
  {773a3dc7-effc-462a-9a64-05e5ad35cc52}, !- Handle
  attic - vented 1,                       !- Name
  ,                                       !- Space Type Name
  ,                                       !- Default Construction Set Name
  ,                                       !- Default Schedule Set Name
  ,                                       !- Direction of Relative North {deg}
  ,                                       !- X Origin {m}
  ,                                       !- Y Origin {m}
  ,                                       !- Z Origin {m}
  ,                                       !- Building Story Name
  {adbf8ee8-4abb-498a-94e6-e84903bf8b0e}, !- Thermal Zone Name
  ,                                       !- Part of Total Floor Area
  ,                                       !- Design Specification Outdoor Air Object Name
  ,                                       !- Building Unit Name
  356.390921899745;                       !- Volume {m3}

OS:Material,
  {5d7356ca-7fee-455f-bfce-3205c8c61175}, !- Handle
  asphalt or fiberglass shingles,         !- Name
  Rough,                                  !- Roughness
  0.00635,                                !- Thickness {m}
  0.162714,                               !- Conductivity {W/m-K}
  1121.4,                                 !- Density {kg/m3}
  1465.45,                                !- Specific Heat {J/kg-K}
  0.9,                                    !- Thermal Absorptance
  0.85,                                   !- Solar Absorptance