
OS:Version,
  {e5f7dbc2-1923-412a-a2dc-f1152dbb70b3}, !- Handle
  3.9.0;                                  !- Version Identifier

OS:SimulationControl,
  {bfeed252-ba86-4509-81c5-20de8ee90fe3}, !- Handle
  ,                                       !- Do Zone Sizing Calculation
  ,                                       !- Do System Sizing Calculation
  ,                                       !- Do Plant Sizing Calculation
  No;                                     !- Run Simulation for Sizing Periods

OS:Timestep,
  {d0ccb3f9-5aa1-4b41-a4c4-c878bdb27d10}, !- Handle
  1;                                      !- Number of Timesteps per Hour

OS:ShadowCalculation,
  {0b691b83-d987-4f76-8d97-2806c823fb10}, !- Handle
  PolygonClipping,                        !- Shading Calculation Method
  ,                                       !- Shading Calculation Update Frequency Method
  20,                                     !- Shading Calculation Update Frequency
  200,                                    !- Maximum Figures in Shadow Overlap Calculations
  ,                                       !- Polygon Clipping Algorithm
  512,                                    !- Pixel Counting Resolution
  ,                                       !- Sky Diffuse Modeling Algorithm
  No,                                     !- Output External Shading Calculation Results
  No,                                     !- Disable Self-Shading Within Shading Zone Groups
  No;                                     !- Disable Self-Shading From Shading Zone Groups to Other Zones

OS:SurfaceConvectionAlgorithm:Outside,
  {0fd816df-8977-4e3e-8313-6f588092d168}, !- Handle
  DOE-2;                                  !- Algorithm

OS:SurfaceConvectionAlgorithm:Inside,
  {1f5d5bf8-b1df-41d4-8fe4-613acfae8b19}, !- Handle
  TARP;                                   !- Algorithm

OS:ZoneCapacitanceMultiplier:ResearchSpecial,
  {0b7eeefe-5c76-4278-ad03-5eba63604797}, !- Handle
  7,                                      !- Temperature Capacity Multiplier
  15,                                     !- Humidity Capacity Multiplier
  ;                                       !- Carbon Dioxide Capacity Multiplier

OS:ConvergenceLimits,
  {5f4ead31-ac4c-44a5-8d2f-7b676a456a1d}, !- Handle
  0;                                      !- Minimum System Timestep {minutes}

OS:RunPeriod,
  {b9b6a962-1092-4931-aee8-fc27b541ec75}, !- Handle
  Run Period 1,                           !- Name
  1,                                      !- Begin Month
  1,                                      !- Begin Day of Month
  12,                                     !- End Month
  31,                                     !- End Day of Month
  ,                                       !- Use Weather File Holidays and Special Days
  ,                                       !- Use Weather File Daylight Saving Period
  ,                                       !- Apply Weekend Holiday Rule
  ,                                       !- Use Weather File Rain Indicators
  ,                                       !- Use Weather File Snow Indicators
  ;                                       !- Number of Times Runperiod to be Repeated

OS:PerformancePrecisionTradeoffs,
  {3c12b255-ed8b-41c7-ad4b-344e1c42d6e2}, !- Handle
  ,                                       !- Use Coil Direct Solutions
  CarrollMRT;                             !- Zone Radiant Exchange Algorithm

OS:WeatherFile,
  {9d4aeb92-4ef5-4651-ac6d-38e6ce8e60bc}, !- Handle
  Buffalo Niagara Intl Ap,                !- City
  NY,                                     !- State Province Region
  USA,                                    !- Country
  TMY3,                                   !- Data Source
  725280,                                 !- WMO Number
  42.93,                                  !- Latitude {deg}
  -78.73,                                 !- Longitude {deg}
  -5,                                     !- Time Zone {hr}
  215,                                    !- Elevation {m}
  /Users/nmoore/github/urbanopt-example-geojson-project/example_project/weather/USA_NY_Buffalo-Greater.Buffalo.Intl.AP.725280_TMY3.epw, !- Url
  6B50E0FF,                               !- Checksum
  ,                                       !- Start Date Actual Year
  Sunday;                                 !- Start Day of Week

OS:YearDescription,
  {068d1412-1ab7-44df-bdae-24921774166a}, !- Handle
  2007,                                   !- Calendar Year
  ,                                       !- Day of Week for Start Day
  ;                                       !- Is Leap Year

OS:Site,
  {7f66abc7-67c0-447f-8c49-ccc65ebc8dec}, !- Handle
  Buffalo Niagara Intl Ap_NY,             !- Name
  42.93,                                  !- Latitude {deg}
  -78.73,                                 !- Longitude {deg}
  -5,                                     !- Time Zone {hr}
  215,                                    !- Elevation {m}
  Suburbs,                                !- Terrain
  Yes;                                    !- Keep Site Location Information

OS:RunPeriodControl:DaylightSavingTime,
  {65835ca6-404f-4850-b0a9-aed14ce05a88}, !- Handle
  Mar 12,                                 !- Start Date
  Nov 5;                                  !- End Date

OS:Site:GroundTemperature:Shallow,
  {d5a33dc2-f525-4a83-8647-b3a06578379e}, !- Handle
  4.30207395723828,                       !- January Surface Ground Temperature {C}
  2.29327249652502,                       !- February Surface Ground Temperature {C}
  2.13240047156047,                       !- March Surface Ground Temperature {C}
  3.08567940719286,                       !- April Surface Ground Temperature {C}
  6.91256312497526,                       !- May Surface Ground Temperature {C}
  10.7216195949507,                       !- June Surface Ground Temperature {C}
  14.0238679822574,                       !- July Surface Ground Temperature {C}
  16.1157611184724,                       !- August Surface Ground Temperature {C}
  16.2934789303462,                       !- September Surface Ground Temperature {C}
  14.5920754632847,                       !- October Surface Ground Temperature {C}
  11.374036348653,                        !- November Surface Ground Temperature {C}
  7.68182621661674;                       !- December Surface Ground Temperature {C}

OS:ThermalZone,
  {c6f89872-9bc5-4a9c-b741-3d45e58dee04}, !- Handle
  conditioned space,                      !- Name
  1,                                      !- Multiplier
  ,                                       !- Ceiling Height {m}
  692.06373070848,                        !- Volume {m3}
  ,                                       !- Floor Area {m2}
  ,                                       !- Zone Inside Convection Algorithm
  ,                                       !- Zone Outside Convection Algorithm
  ,                                       !- Zone Conditioning Equipment List Name
  {0e7fe58f-48f2-4132-96f5-1900265813d3}, !- Zone Air Inlet Port List
  {9c19beb5-60a3-409b-8f67-cd28b665dc6e}, !- Zone Air Exhaust Port List
  {df72c9a9-6d76-4613-86a8-a234c1c79188}, !- Zone Air Node Name
  {78966ee0-cde1-4d83-a2ed-6783e13d73fb}, !- Zone Return Air Port List
  ,                                       !- Primary Daylighting Control Name
  ,                                       !- Fraction of Zone Controlled by Primary Daylighting Control
  ,                                       !- Secondary Daylighting Control Name
  ,                                       !- Fraction of Zone Controlled by Secondary Daylighting Control
  ,                                       !- Illuminance Map Name
  ,                                       !- Group Rendering Name
  {17ecf0ee-63ed-4036-a3fc-342c79fc7d62}, !- Thermostat Name
  No;                                     !- Use Ideal Air Loads

OS:Node,
  {09f20d33-5f77-4d5b-9c1e-9cabaf8cfb0d}, !- Handle
  Node 1,                                 !- Name
  {df72c9a9-6d76-4613-86a8-a234c1c79188}, !- Inlet Port
  ;                                       !- Outlet Port

OS:Connection,
  {df72c9a9-6d76-4613-86a8-a234c1c79188}, !- Handle
  {c6f89872-9bc5-4a9c-b741-3d45e58dee04}, !- Source Object
  11,                                     !- Outlet Port
  {09f20d33-5f77-4d5b-9c1e-9cabaf8cfb0d}, !- Target Object
  2;                                      !- Inlet Port

OS:PortList,
  {0e7fe58f-48f2-4132-96f5-1900265813d3}, !- Handle
  {c6f89872-9bc5-4a9c-b741-3d45e58dee04}, !- HVAC Component
  {db89496b-3585-4f99-9836-b35ea7d3bf30}; !- Port 1

OS:PortList,
  {9c19beb5-60a3-409b-8f67-cd28b665dc6e}, !- Handle
  {c6f89872-9bc5-4a9c-b741-3d45e58dee04}; !- HVAC Component

OS:PortList,
  {78966ee0-cde1-4d83-a2ed-6783e13d73fb}, !- Handle
  {c6f89872-9bc5-4a9c-b741-3d45e58dee04}, !- HVAC Component
  {de21777e-f073-43d3-99f0-a2a06dc39a0f}; !- Port 1

OS:Sizing:Zone,
  {0b614498-d783-45ae-a64e-aeee781e7945}, !- Handle
  {c6f89872-9bc5-4a9c-b741-3d45e58dee04}, !- Zone or ZoneList Name
  SupplyAirTemperature,                   !- Zone Cooling Design Supply Air Temperature Input Method
  14,                                     !- Zone Cooling Design Supply Air Temperature {C}
  11.11,                                  !- Zone Cooling Design Supply Air Temperature Difference {deltaC}
  SupplyAirTemperature,                   !- Zone Heating Design Supply Air Temperature Input Method
  40,                                     !- Zone Heating Design Supply Air Temperature {C}
  11.11,                                  !- Zone Heating Design Supply Air Temperature Difference {deltaC}
  0.0085,                                 !- Zone Cooling Design Supply Air Humidity Ratio {kg-H2O/kg-air}
  0.008,                                  !- Zone Heating Design Supply Air Humidity Ratio {kg-H2O/kg-air}
  ,                                       !- Zone Heating Sizing Factor
  ,                                       !- Zone Cooling Sizing Factor
  DesignDay,                              !- Cooling Design Air Flow Method
  ,                                       !- Cooling Design Air Flow Rate {m3/s}
  ,                                       !- Cooling Minimum Air Flow per Zone Floor Area {m3/s-m2}
  ,                                       !- Cooling Minimum Air Flow {m3/s}
  ,                                       !- Cooling Minimum Air Flow Fraction
  DesignDay,                              !- Heating Design Air Flow Method
  ,                                       !- Heating Design Air Flow Rate {m3/s}
  ,                                       !- Heating Maximum Air Flow per Zone Floor Area {m3/s-m2}
  ,                                       !- Heating Maximum Air Flow {m3/s}
  ,                                       !- Heating Maximum Air Flow Fraction
  No,                                     !- Account for Dedicated Outdoor Air System
  NeutralSupplyAir,                       !- Dedicated Outdoor Air System Control Strategy
  autosize,                               !- Dedicated Outdoor Air Low Setpoint Temperature for Design {C}
  autosize,                               !- Dedicated Outdoor Air High Setpoint Temperature for Design {C}
  Sensible Load Only No Latent Load,      !- Zone Load Sizing Method
  HumidityRatioDifference,                !- Zone Latent Cooling Design Supply Air Humidity Ratio Input Method
  ,                                       !- Zone Dehumidification Design Supply Air Humidity Ratio {kgWater/kgDryAir}
  0.005,                                  !- Zone Cooling Design Supply Air Humidity Ratio Difference {kgWater/kgDryAir}
  HumidityRatioDifference,                !- Zone Latent Heating Design Supply Air Humidity Ratio Input Method
  ,                                       !- Zone Humidification Design Supply Air Humidity Ratio {kgWater/kgDryAir}
  0.005,                                  !- Zone Humidification Design Supply Air Humidity Ratio Difference {kgWater/kgDryAir}
  ,                                       !- Zone Humidistat Dehumidification Set Point Schedule Name
  ,                                       !- Zone Humidistat Humidification Set Point Schedule Name
  ,                                       !- Design Zone Air Distribution Effectiveness in Cooling Mode
  ,                                       !- Design Zone Air Distribution Effectiveness in Heating Mode
  ,                                       !- Design Zone Secondary Recirculation Fraction {dimensionless}
  ,                                       !- Design Minimum Zone Ventilation Efficiency {dimensionless}
  Coincident;                             !- Sizing Option

OS:ZoneHVAC:EquipmentList,
  {a7527193-1f02-4466-9727-d0570c5c519b}, !- Handle
  Zone HVAC Equipment List 1,             !- Name
  {c6f89872-9bc5-4a9c-b741-3d45e58dee04}, !- Thermal Zone
  ,                                       !- Load Distribution Scheme
  {1671f0c8-0cfb-4818-bdcb-434ce8f14837}, !- Zone Equipment 1
  1,                                      !- Zone Equipment Cooling Sequence 1
  1,                                      !- Zone Equipment Heating or No-Load Sequence 1
  {3d29c525-fa17-48a8-ba75-fbab73886126}, !- Zone Equipment Sequential Cooling Fraction Schedule Name 1
  {e514467f-d76a-4974-b656-fa038463d8ed}; !- Zone Equipment Sequential Heating Fraction Schedule Name 1

OS:AdditionalProperties,
  {3da51785-3af7-4da6-ab3a-5e68020228de}, !- Handle
  {c6f89872-9bc5-4a9c-b741-3d45e58dee04}, !- Object Name
  ObjectType,                             !- Feature Name 1
  String,                                 !- Feature Data Type 1
  conditioned space;                      !- Feature Value 1

OS:Space,
  {43a0e3d3-fc0a-4675-b937-7e068089d3cb}, !- Handle
  conditioned space 1,                    !- Name
  ,                                       !- Space Type Name
  ,                                       !- Default Construction Set Name
  ,                                       !- Default Schedule Set Name
  ,                                       !- Direction of Relative North {deg}
  ,                                       !- X Origin {m}
  ,                                       !- Y Origin {m}
  ,                                       !- Z Origin {m}
  ,                                       !- Building Story Name
  {c6f89872-9bc5-4a9c-b741-3d45e58dee04}, !- Thermal Zone Name
  ,                                       !- Part of Total Floor Area
  ,                                       !- Design Specification Outdoor Air Object Name
  ,                                       !- Building Unit Name
  692.06373070848;                        !- Volume {m3}

OS:Schedule:Ruleset,
  {598912ef-fb15-4ae9-9d78-1c197082ff47}, !- Handle
  heating setpoint,                       !- Name
  {73a24f7d-837e-44c9-a1d1-88cbf79b23aa}, !- Schedule Type Limits Name
  {7b220e1b-f823-4c63-88a1-47ecb8a8ca10}; !- Default Day Schedule Name

OS:Schedule:Day,
  {7b220e1b-f823-4c63-88a1-47ecb8a8ca10}, !- Handle
  heating setpoint default day,           !- Name
  {73a24f7d-837e-44c9-a1d1-88cbf79b23aa}, !- Schedule Type Limits Name
  ,                                       !- Interpolate to Timestep
  24,                                     !- Hour 1
  0,                                      !- Minute 1
  0;                                      !- Value Until Time 1

OS:Schedule:Rule,
  {f15c69ad-7e68-47f7-bb3b-b0f5d9c385d9}, !- Handle
  heating setpoint allday rule,           !- Name
  {598912ef-fb15-4ae9-9d78-1c197082ff47}, !- Schedule Ruleset Name
  0,                                      !- Rule Order
  {e7cfd91e-4bf6-429c-a4c0-fcf524dc676c}, !- Day Schedule Name
  Yes,                                    !- Apply Sunday
  Yes,                                    !- Apply Monday
  Yes,                                    !- Apply Tuesday
  Yes,                                    !- Apply Wednesday
  Yes,                                    !- Apply Thursday
  Yes,                                    !- Apply Friday
  Yes,                                    !- Apply Saturday
  DateRange,                              !- Date Specification Type
  1,                                      !- Start Month
  1,                                      !- Start Day
  12,                                     !- End Month
  31;                                     !- End Day

OS:Schedule:Day,
  {e7cfd91e-4bf6-429c-a4c0-fcf524dc676c}, !- Handle
  heating setpoint day,                   !- Name
  {73a24f7d-837e-44c9-a1d1-88cbf79b23aa}, !- Schedule Type Limits Name
  ,                                       !- Interpolate to Timestep
  24,                                     !- Hour 1
  0,                                      !- Minute 1
  20;                                     !- Value Until Time 1

OS:Schedule:Ruleset,
  {a5e29b72-434d-4073-8c40-3bf3c1fc695c}, !- Handle
  cooling setpoint,                       !- Name
  {73a24f7d-837e-44c9-a1d1-88cbf79b23aa}, !- Schedule Type Limits Name
  {3d7f552f-3bf2-473e-b6e2-79ee40ac5e1f}; !- Default Day Schedule Name

OS:Schedule:Day,
  {3d7f552f-3bf2-473e-b6e2-79ee40ac5e1f}, !- Handle
  cooling setpoint default day,           !- Name
  {73a24f7d-837e-44c9-a1d1-88cbf79b23aa}, !- Schedule Type Limits Name
  ,                                       !- Interpolate to Timestep
  24,                                     !- Hour 1
  0,                                      !- Minute 1
  0;                                      !- Value Until Time 1

OS:Schedule:Rule,
  {684c509e-3947-496a-b131-48dbb5856b55}, !- Handle
  cooling setpoint allday rule,           !- Name
  {a5e29b72-434d-4073-8c40-3bf3c1fc695c}, !- Schedule Ruleset Name
  0,                                      !- Rule Order
  {63f1337c-6d24-487d-b4d6-d7b6e5d33363}, !- Day Schedule Name
  Yes,                                    !- Apply Sunday
  Yes,                                    !- Apply Monday
  Yes,                                    !- Apply Tuesday
  Yes,                                    !- Apply Wednesday
  Yes,                                    !- Apply Thursday
  Yes,                                    !- Apply Friday
  Yes,                                    !- Apply Saturday
  DateRange,                              !- Date Specification Type
  1,                                      !- Start Month
  1,                                      !- Start Day
  12,                                     !- End Month
  31;                                     !- End Day

OS:Schedule:Day,
  {63f1337c-6d24-487d-b4d6-d7b6e5d33363}, !- Handle
  cooling setpoint day,                   !- Name
  {73a24f7d-837e-44c9-a1d1-88cbf79b23aa}, !- Schedule Type Limits Name
  ,                                       !- Interpolate to Timestep
  24,                                     !- Hour 1
  0,                                      !- Minute 1
  25.5555555555556;                       !- Value Until Time 1

OS:ThermostatSetpoint:DualSetpoint,
  {17ecf0ee-63ed-4036-a3fc-342c79fc7d62}, !- Handle
  conditioned space temperature setpoint, !- Name
  {598912ef-fb15-4ae9-9d78-1c197082ff47}, !- Heating Setpoint Temperature Schedule Name
  {a5e29b72-434d-4073-8c40-3bf3c1fc695c}, !- Cooling Setpoint Temperature Schedule Name
  0;                                      !- Temperature Difference Between Cutout And Setpoint {deltaC}

OS:ScheduleTypeLimits,
  {73a24f7d-837e-44c9-a1d1-88cbf79b23aa}, !- Handle
  Temperature,                            !- Name
  ,                                       !- Lower Limit Value
  ,                                       !- Upper Limit Value
  Continuous,                             !- Numeric Type
  Temperature;                            !- Unit Type

OS:Surface,
  {092094e9-36c8-4154-a70f-b0534719cd49}, !- Handle
  Roof1,                                  !- Name
  RoofCeiling,                            !- Surface Type
  {57e60d2b-18ad-41ff-9573-a47af8706608}, !- Construction Name
  {43a0e3d3-fc0a-4675-b937-7e068089d3cb}, !- Space Name
  Outdoors,                               !- Outside Boundary Condition
  ,                                       !- Outside Boundary Condition Object
  SunExposed,                             !- Sun Exposure
  WindExposed,                            !- Wind Exposure
  ,                                       !- View Factor to Ground
  ,                                       !- Number of Vertices
  -5.95628646053898, 5.95628646053898, 2.4384, !- X,Y,Z Vertex 1 {m}
  -5.95628646053898, -5.95628646053898, 2.4384, !- X,Y,Z Vertex 2 {m}
  5.95628646053898, -5.95628646053898, 2.4384, !- X,Y,Z Vertex 3 {m}
  5.95628646053898, 5.95628646053898, 2.4384; !- X,Y,Z Vertex 4 {m}

OS:AdditionalProperties,
  {a33e300b-814e-439a-9e78-474a44eafe0d}, !- Handle
  {092094e9-36c8-4154-a70f-b0534719cd49}, !- Object Name
  Length,                                 !- Feature Name 1
  Double,                                 !- Feature Data Type 1
  39.083244491725608,                     !- Feature Value 1
  Width,                                  !- Feature Name 2
  Double,                                 !- Feature Data Type 2
  39.083244491725608,                     !- Feature Value 2
  Azimuth,                                !- Feature Name 3
  Integer,                                !- Feature Data Type 3
  0,                                      !- Feature Value 3
  Tilt,                                   !- Feature Name 4
  Double,                                 !- Feature Data Type 4
  0,                                      !- Feature Value 4
  SurfaceType,                            !- Feature Name 5
  String,                                 !- Feature Data Type 5
  Roof;                                   !- Feature Value 5

OS:Material,
  {605f20ce-4c9d-4955-b4ed-e5d001c63dc1}, !- Handle
  asphalt or fiberglass shingles,         !- Name
  Rough,                                  !- Roughness
  0.00635,                                !- Thickness {m}
  0.162714,                               !- Conductivity {W/m-K}
  1121.4,                                 !- Density {kg/m3}
  1465.45,                                !- Specific Heat {J/kg-K}
  0.9,                                    !- Thermal Absorptance
  0.85,                                   !- Solar Absorptance
  0.85;                                   !- Visible Absorptance

OS:Material,
  {006056d9-90ae-4ef2-aec0-413e0c34a171}, !- Handle
  roof stud and cavity,                   !- Name
  Rough,                                  !- Roughness
  0.0889,                                 !- Thickness {m}
  0.491900632004487,                      !- Conductivity {W/m-K}
  50.32683,                               !- Density {kg/m3}
  1063.80987585548,                       !- Specific Heat {J/kg-K}
  0.9,                                    !- Thermal Absorptance
  0.7,                                    !- Solar Absorptance
  0.7;                                    !- Visible Absorptance

OS:Material,
  {00630796-771b-49db-8ee4-b98b94a7f760}, !- Handle
  gypsum board,                           !- Name
  Rough,                                  !- Roughness
  0.00254,                                !- Thickness {m}
  0.1602906,                              !- Conductivity {W/m-K}
  801,                                    !- Density {kg/m3}
  837.4,                                  !- Specific Heat {J/kg-K}
  0.9,                                    !- Thermal Absorptance
  0.6,                                    !- Solar Absorptance
  0.6;                                    !- Visible Absorptance

OS:Construction,
  {57e60d2b-18ad-41ff-9573-a47af8706608}, !- Handle
  Roof1 construction,                     !- Name
  ,                                       !- Surface Rendering Name
  {605f20ce-4c9d-4955-b4ed-e5d001c63dc1}, !- Layer 1
  {006056d9-90ae-4ef2-aec0-413e0c34a171}, !- Layer 2
  {00630796-771b-49db-8ee4-b98b94a7f760}; !- Layer 3

OS:Surface,
  {3fe8964e-183a-4573-8116-ccca3adb86e5}, !- Handle
  Wall1,                                  !- Name
  Wall,                                   !- Surface Type
  {ca40c3b9-7063-4010-9a5a-d7eee10fe92d}, !- Construction Name
  {43a0e3d3-fc0a-4675-b937-7e068089d3cb}, !- Space Name
  Outdoors,                               !- Outside Boundary Condition
  ,                                       !- Outside Boundary Condition Object
  SunExposed,                             !- Sun Exposure
  WindExposed,                            !- Wind Exposure
  ,                                       !- View Factor to Ground
  ,                                       !- Number of Vertices
  -35.7504882769231, 36.6795186769231, 0, !- X,Y,Z Vertex 1 {m}
  -35.7504882769231, 36.6795186769231, 2.4384, !- X,Y,Z Vertex 2 {m}
  -21.9354282769231, 36.6795186769231, 2.4384, !- X,Y,Z Vertex 3 {m}
  -21.9354282769231, 36.6795186769231, 0; !- X,Y,Z Vertex 4 {m}

OS:AdditionalProperties,
  {92cac6a6-3925-4b58-80c2-7167851acf38}, !- Handle
  {3fe8964e-183a-4573-8116-ccca3adb86e5}, !- Object Name
  Length,                                 !- Feature Name 1
  Double,                                 !- Feature Data Type 1
  45.325000000000003,                     !- Feature Value 1
  Azimuth,                                !- Feature Name 2
  Integer,                                !- Feature Data Type 2
  0,                                      !- Feature Value 2
  Tilt,                                   !- Feature Name 3
  Double,                                 !- Feature Data Type 3
  90,                                     !- Feature Value 3
  SurfaceType,                            !- Feature Name 4
  String,                                 !- Feature Data Type 4
  Wall;                                   !- Feature Value 4

OS:Material,
  {99d149b4-a50e-4fe9-9272-458e2bf22a93}, !- Handle
  wood siding,                            !- Name
  Rough,                                  !- Roughness
  0.0254,                                 !- Thickness {m}
  0.1024175,                              !- Conductivity {W/m-K}
  544.68,                                 !- Density {kg/m3}
  1172.36,                                !- Specific Heat {J/kg-K}
  0.9,                                    !- Thermal Absorptance
  0.7,                                    !- Solar Absorptance
  0.7;                                    !- Visible Absorptance

OS:Material,
  {12a31411-ec4a-42b6-9d48-daf35567d80f}, !- Handle
  osb sheathing 0.5 in.,                  !- Name
  Rough,                                  !- Roughness
  0.0127,                                 !- Thickness {m}
  0.1154577,                              !- Conductivity {W/m-K}
  512.64,                                 !- Density {kg/m3}
  1214.23,                                !- Specific Heat {J/kg-K}
  0.9,                                    !- Thermal Absorptance
  0.7,                                    !- Solar Absorptance
  0.7;                                    !- Visible Absorptance

OS:Material,
  {37088b76-58b8-4bdb-a9ef-60f23010c72f}, !- Handle
  wall stud and cavity,                   !- Name
  Rough,                                  !- Roughness
  0.1397,                                 !- Thickness {m}
  0.0929021674204099,                     !- Conductivity {W/m-K}
  139.0536,                               !- Density {kg/m3}
  1170.23755760369,                       !- Specific Heat {J/kg-K}
  0.9,                                    !- Thermal Absorptance
  0.7,                                    !- Solar Absorptance
  0.7;                                    !- Visible Absorptance

OS:Material,
  {40713e8e-a05d-4d00-a496-87089cd90221}, !- Handle
  gypsum board 1,                         !- Name
  Rough,                                  !- Roughness
  0.0127,                                 !- Thickness {m}
  0.1602906,                              !- Conductivity {W/m-K}
  801,                                    !- Density {kg/m3}
  837.4,                                  !- Specific Heat {J/kg-K}
  0.9,                                    !- Thermal Absorptance
  0.6,                                    !- Solar Absorptance
  0.6;                                    !- Visible Absorptance

OS:Construction,
  {ca40c3b9-7063-4010-9a5a-d7eee10fe92d}, !- Handle
  Wall1 construction,                     !- Name
  ,                                       !- Surface Rendering Name
  {99d149b4-a50e-4fe9-9272-458e2bf22a93}, !- Layer 1
  {12a31411-ec4a-42b6-9d48-daf35567d80f}, !- Layer 2
  {37088b76-58b8-4bdb-a9ef-60f23010c72f}, !- Layer 3
  {40713e8e-a05d-4d00-a496-87089cd90221}; !- Layer 4

OS:Surface,
  {73520060-5aaa-4e58-b851-d0f5cf692291}, !- Handle
  Wall2,                                  !- Name
  Wall,                                   !- Surface Type
  {c0fbd161-efd8-4ca9-b7e7-2ea2e68eaab8}, !- Construction Name
  {43a0e3d3-fc0a-4675-b937-7e068089d3cb}, !- Space Name
  Outdoors,                               !- Outside Boundary Condition
  ,                                       !- Outside Boundary Condition Object
  SunExposed,                             !- Sun Exposure
  WindExposed,                            !- Wind Exposure
  ,                                       !- View Factor to Ground
  ,                                       !- Number of Vertices
  36.6795186769231, -25.4732249435897, 0, !- X,Y,Z Vertex 1 {m}
  36.6795186769231, -25.4732249435897, 2.4384, !- X,Y,Z Vertex 2 {m}
  36.6795186769231, -32.3807549435897, 2.4384, !- X,Y,Z Vertex 3 {m}
  36.6795186769231, -32.3807549435897, 0; !- X,Y,Z Vertex 4 {m}

OS:AdditionalProperties,
  {ceef0c87-20f9-4b87-87c8-99486fddad3a}, !- Handle
  {73520060-5aaa-4e58-b851-d0f5cf692291}, !- Object Name
  Length,                                 !- Feature Name 1
  Double,                                 !- Feature Data Type 1
  22.662500000000001,                     !- Feature Value 1
  Azimuth,                                !- Feature Name 2