
OS:Version,
  {090d5b3c-87c9-4f69-aa84-d8964ba74ca6}, !- Handle
  3.10.0;                                 !- Version Identifier

OS:SimulationControl,
  {a091a17c-ed58-495c-9c08-f7a432a4f646}, !- Handle
  ,                                       !- Do Zone Sizing Calculation
  ,                                       !- Do System Sizing Calculation
  ,                                       !- Do Plant Sizing Calculation
  No;                                     !- Run Simulation for Sizing Periods

OS:Timestep,
  {0c515389-4af2-49b0-aa21-4f2e4490da4a}, !- Handle
  1;                                      !- Number of Timesteps per Hour

OS:ShadowCalculation,
  {9406ff6d-073a-4b0c-9d11-66965dc11fa8}, !- Handle
  PolygonClipping,                        !- Shading Calculation Method
  ,                                       !- Shading Calculation Update Frequency Method
  20,                                     !- Shading Calculation Update Frequency
  200,                                    !- Maximum Figures in Shadow Overlap Calculations
  ,                                       !- Polygon Clipping Algorithm
  512,                                    !- Pixel Counting Resolution
  ,                                       !- Sky Diffuse Modeling Algorithm
  No,                                     !- Output External Shading Calculation Results
  No,                                     !- Disable Self-Shading Within Shading Zone Groups
  No;                                     !- Disable Self-Shading From Shading Zone Groups to Other Zones

OS:SurfaceConvectionAlgorithm:Outside,
  {f69fae49-eacb-4d85-9e3d-5d840431866c}, !- Handle
  DOE-2;                                  !- Algorithm

OS:SurfaceConvectionAlgorithm:Inside,
  {5d6afa63-6b1f-4556-93d5-4efee59c3a65}, !- Handle
  TARP;                                   !- Algorithm

OS:ZoneCapacitanceMultiplier:ResearchSpecial,
  {a05d77b3-1265-4ebc-975c-a1a212dfec09}, !- Handle
  7,                                      !- Temperature Capacity Multiplier
  15,                                     !- Humidity Capacity Multiplier
  ;                                       !- Carbon Dioxide Capacity Multiplier

OS:ConvergenceLimits,
  {1db586d6-1f7d-4e6b-9754-aaa779c70996}, !- Handle
  0;                                      !- Minimum System Timestep {minutes}

OS:RunPeriod,
  {8784614e-c9ac-4da1-a453-1c8df5fa4c1e}, !- Handle
  Run Period 1,                           !- Name
  1,                                      !- Begin Month
  1,                                      !- Begin Day of Month
  12,                                     !- End Month
  31,                                     !- End Day of Month
  ,                                       !- Use Weather File Holidays and Special Days
  ,                                       !- Use Weather File Daylight Saving Period
  ,                                       !- Apply Weekend Holiday Rule
  ,                                       !- Use Weather File Rain Indicators
  ,                                       !- Use Weather File Snow Indicators
  ;                                       !- Number of Times Runperiod to be Repeated

OS:PerformancePrecisionTradeoffs,
  {f98b837d-e9f9-4dfc-860c-7a5f36a0980a}, !- Handle
  ,                                       !- Use Coil Direct Solutions
  CarrollMRT;                             !- Zone Radiant Exchange Algorithm

OS:WeatherFile,
  {2e05053b-579c-4dfe-87e9-269be2883461}, !- Handle
  Buffalo Niagara Intl Ap,                !- City
  NY,                                     !- State Province Region
  USA,                                    !- Country
  TMY3,                                   !- Data Source
  725280,                                 !- WMO Number
  42.93,                                  !- Latitude {deg}
  -78.73,                                 !- Longitude {deg}
  -5,                                     !- Time Zone {hr}
  215,                                    !- Elevation {m}
  /Users/nmoore/github/urbanopt-example-geojson-project/example_project/weather/USA_NY_Buffalo-Greater.Buffalo.Intl.AP.725280_TMY3.epw, !- Url
  6B50E0FF,                               !- Checksum
  ,                                       !- Start Date Actual Year
  Sunday;                                 !- Start Day of Week

OS:YearDescription,
  {c2571ef4-f08e-4f95-8ec2-88af784f076d}, !- Handle
  2007,                                   !- Calendar Year
  ,                                       !- Day of Week for Start Day
  ;                                       !- Is Leap Year

OS:Site,
  {8dec12ef-d5ac-41a5-a18c-d5069b2c8e46}, !- Handle
  Buffalo Niagara Intl Ap_NY,             !- Name
  42.93,                                  !- Latitude {deg}
  -78.73,                                 !- Longitude {deg}
  -5,                                     !- Time Zone {hr}
  215,                                    !- Elevation {m}
  Suburbs,                                !- Terrain
  Yes;                                    !- Keep Site Location Information

OS:RunPeriodControl:DaylightSavingTime,
  {0b578dce-6dff-4eb1-bca7-367174b07ac3}, !- Handle
  Mar 12,                                 !- Start Date
  Nov 5;                                  !- End Date

OS:Site:GroundTemperature:Shallow,
  {bd728eb7-9588-4e91-a38a-b6489471a294}, !- Handle
  4.30207395723828,                       !- January Surface Ground Temperature {C}
  2.29327249652502,                       !- February Surface Ground Temperature {C}
  2.13240047156047,                       !- March Surface Ground Temperature {C}
  3.08567940719286,                       !- April Surface Ground Temperature {C}
  6.91256312497526,                       !- May Surface Ground Temperature {C}
  10.7216195949507,                       !- June Surface Ground Temperature {C}
  14.0238679822574,                       !- July Surface Ground Temperature {C}
  16.1157611184724,                       !- August Surface Ground Temperature {C}
  16.2934789303462,                       !- September Surface Ground Temperature {C}
  14.5920754632847,                       !- October Surface Ground Temperature {C}
  11.374036348653,                        !- November Surface Ground Temperature {C}
  7.68182621661674;                       !- December Surface Ground Temperature {C}

OS:ThermalZone,
  {07b781e8-8bc1-4933-a7f8-1a205c9b1762}, !- Handle
  conditioned space,                      !- Name
  1,                                      !- Multiplier
  ,                                       !- Ceiling Height {m}
  692.06373070848,                        !- Volume {m3}
  ,                                       !- Floor Area {m2}
  ,                                       !- Zone Inside Convection Algorithm
  ,                                       !- Zone Outside Convection Algorithm
  ,                                       !- Zone Conditioning Equipment List Name
  {dcb4ace1-2dac-4161-b6d8-24c0d95d8f41}, !- Zone Air Inlet Port List
  {b7c474cf-61d3-4c29-a840-690e13888ea3}, !- Zone Air Exhaust Port List
  {fee3b091-de1b-482a-81c1-29317bdb963b}, !- Zone Air Node Name
  {df0f8051-4df2-4118-bd06-cd0dc674d3c5}, !- Zone Return Air Port List
  ,                                       !- Primary Daylighting Control Name
  ,                                       !- Fraction of Zone Controlled by Primary Daylighting Control
  ,                                       !- Secondary Daylighting Control Name
  ,                                       !- Fraction of Zone Controlled by Secondary Daylighting Control
  ,                                       !- Illuminance Map Name
  ,                                       !- Group Rendering Name
  {c05246de-869a-48f8-9809-95854da9dd1c}, !- Thermostat Name
  No;                                     !- Use Ideal Air Loads

OS:Node,
  {3abc4c2b-fa41-427e-bbb6-931e5501b0ea}, !- Handle
  Node 1,                                 !- Name
  {fee3b091-de1b-482a-81c1-29317bdb963b}, !- Inlet Port
  ;                                       !- Outlet Port

OS:Connection,
  {fee3b091-de1b-482a-81c1-29317bdb963b}, !- Handle
  {07b781e8-8bc1-4933-a7f8-1a205c9b1762}, !- Source Object
  11,                                     !- Outlet Port
  {3abc4c2b-fa41-427e-bbb6-931e5501b0ea}, !- Target Object
  2;                                      !- Inlet Port

OS:PortList,
  {dcb4ace1-2dac-4161-b6d8-24c0d95d8f41}, !- Handle
  {07b781e8-8bc1-4933-a7f8-1a205c9b1762}, !- HVAC Component
  {9c407cc8-e65c-48ec-9e79-e3ce68e3663e}; !- Port 1

OS:PortList,
  {b7c474cf-61d3-4c29-a840-690e13888ea3}, !- Handle
  {07b781e8-8bc1-4933-a7f8-1a205c9b1762}; !- HVAC Component

OS:PortList,
  {df0f8051-4df2-4118-bd06-cd0dc674d3c5}, !- Handle
  {07b781e8-8bc1-4933-a7f8-1a205c9b1762}, !- HVAC Component
  {4deb1ad3-e953-40ac-a9b6-19c4ffcbc6e8}; !- Port 1

OS:Sizing:Zone,
  {2613dc29-1fee-4ef8-89b1-422932e42efe}, !- Handle
  {07b781e8-8bc1-4933-a7f8-1a205c9b1762}, !- Zone or ZoneList Name
  SupplyAirTemperature,                   !- Zone Cooling Design Supply Air Temperature Input Method
  14,                                     !- Zone Cooling Design Supply Air Temperature {C}
  11.11,                                  !- Zone Cooling Design Supply Air Temperature Difference {deltaC}
  SupplyAirTemperature,                   !- Zone Heating Design Supply Air Temperature Input Method
  40,                                     !- Zone Heating Design Supply Air Temperature {C}
  11.11,                                  !- Zone Heating Design Supply Air Temperature Difference {deltaC}
  0.0085,                                 !- Zone Cooling Design Supply Air Humidity Ratio {kg-H2O/kg-air}
  0.008,                                  !- Zone Heating Design Supply Air Humidity Ratio {kg-H2O/kg-air}
  ,                                       !- Zone Heating Sizing Factor
  ,                                       !- Zone Cooling Sizing Factor
  DesignDay,                              !- Cooling Design Air Flow Method
  ,                                       !- Cooling Design Air Flow Rate {m3/s}
  ,                                       !- Cooling Minimum Air Flow per Zone Floor Area {m3/s-m2}
  ,                                       !- Cooling Minimum Air Flow {m3/s}
  ,                                       !- Cooling Minimum Air Flow Fraction
  DesignDay,                              !- Heating Design Air Flow Method
  ,                                       !- Heating Design Air Flow Rate {m3/s}
  ,                                       !- Heating Maximum Air Flow per Zone Floor Area {m3/s-m2}
  ,                                       !- Heating Maximum Air Flow {m3/s}
  ,                                       !- Heating Maximum Air Flow Fraction
  No,                                     !- Account for Dedicated Outdoor Air System
  NeutralSupplyAir,                       !- Dedicated Outdoor Air System Control Strategy
  autosize,                               !- Dedicated Outdoor Air Low Setpoint Temperature for Design {C}
  autosize,                               !- Dedicated Outdoor Air High Setpoint Temperature for Design {C}
  Sensible Load Only No Latent Load,      !- Zone Load Sizing Method
  HumidityRatioDifference,                !- Zone Latent Cooling Design Supply Air Humidity Ratio Input Method
  ,                                       !- Zone Dehumidification Design Supply Air Humidity Ratio {kgWater/kgDryAir}
  0.005,                                  !- Zone Cooling Design Supply Air Humidity Ratio Difference {kgWater/kgDryAir}
  HumidityRatioDifference,                !- Zone Latent Heating Design Supply Air Humidity Ratio Input Method
  ,                                       !- Zone Humidification Design Supply Air Humidity Ratio {kgWater/kgDryAir}
  0.005,                                  !- Zone Humidification Design Supply Air Humidity Ratio Difference {kgWater/kgDryAir}
  ,                                       !- Zone Humidistat Dehumidification Set Point Schedule Name
  ,                                       !- Zone Humidistat Humidification Set Point Schedule Name
  ,                                       !- Design Zone Air Distribution Effectiveness in Cooling Mode
  ,                                       !- Design Zone Air Distribution Effectiveness in Heating Mode
  ,                                       !- Design Zone Secondary Recirculation Fraction {dimensionless}
  ,                                       !- Design Minimum Zone Ventilation Efficiency {dimensionless}
  Coincident;                             !- Sizing Option

OS:ZoneHVAC:EquipmentList,
  {8c4c80b2-9e07-4e8a-aebe-8f62ca85ef28}, !- Handle
  Zone HVAC Equipment List 1,             !- Name
  {07b781e8-8bc1-4933-a7f8-1a205c9b1762}, !- Thermal Zone
  ,                                       !- Load Distribution Scheme
  {48b6726d-19b8-4d93-814b-13dc6f8ef3ef}, !- Zone Equipment 1
  1,                                      !- Zone Equipment Cooling Sequence 1
  1,                                      !- Zone Equipment Heating or No-Load Sequence 1
  {7b45a2b4-77f2-4e8d-8bfc-d6b4e2f256a0}, !- Zone Equipment Sequential Cooling Fraction Schedule Name 1
  {c8b4a184-359e-4ad9-8a64-7e8536a253a9}; !- Zone Equipment Sequential Heating Fraction Schedule Name 1

OS:AdditionalProperties,
  {d42d1d23-67b3-472c-a422-b74c59cb67bd}, !- Handle
  {07b781e8-8bc1-4933-a7f8-1a205c9b1762}, !- Object Name
  ObjectType,                             !- Feature Name 1
  String,                                 !- Feature Data Type 1
  conditioned space;                      !- Feature Value 1

OS:Space,
  {f8d94cd0-cc22-4cca-8c2a-06e69c22be09}, !- Handle
  conditioned space 1,                    !- Name
  ,                                       !- Space Type Name
  ,                                       !- Default Construction Set Name
  ,                                       !- Default Schedule Set Name
  ,                                       !- Direction of Relative North {deg}
  ,                                       !- X Origin {m}
  ,                                       !- Y Origin {m}
  ,                                       !- Z Origin {m}
  ,                                       !- Building Story Name
  {07b781e8-8bc1-4933-a7f8-1a205c9b1762}, !- Thermal Zone Name
  ,                                       !- Part of Total Floor Area
  ,                                       !- Design Specification Outdoor Air Object Name
  ,                                       !- Building Unit Name
  692.06373070848;                        !- Volume {m3}

OS:Schedule:Ruleset,
  {ee87af0d-3722-4e3b-94f5-909e24404b66}, !- Handle
  heating setpoint,                       !- Name
  {7cd64c52-e074-40a8-ab98-6bd11cda8322}, !- Schedule Type Limits Name
  {ebb97d4c-2a49-441d-ae9f-47b02e6f5024}; !- Default Day Schedule Name

OS:Schedule:Day,
  {ebb97d4c-2a49-441d-ae9f-47b02e6f5024}, !- Handle
  heating setpoint default day,           !- Name
  {7cd64c52-e074-40a8-ab98-6bd11cda8322}, !- Schedule Type Limits Name
  ,                                       !- Interpolate to Timestep
  24,                                     !- Hour 1
  0,                                      !- Minute 1
  0;                                      !- Value Until Time 1

OS:Schedule:Rule,
  {7d74535c-32e7-495c-ae54-c5f18a9f11a5}, !- Handle
  heating setpoint allday rule,           !- Name
  {ee87af0d-3722-4e3b-94f5-909e24404b66}, !- Schedule Ruleset Name
  0,                                      !- Rule Order
  {ad1b5699-1e29-4ba1-b424-42688d506cbc}, !- Day Schedule Name
  Yes,                                    !- Apply Sunday
  Yes,                                    !- Apply Monday
  Yes,                                    !- Apply Tuesday
  Yes,                                    !- Apply Wednesday
  Yes,                                    !- Apply Thursday
  Yes,                                    !- Apply Friday
  Yes,                                    !- Apply Saturday
  DateRange,                              !- Date Specification Type
  1,                                      !- Start Month
  1,                                      !- Start Day
  12,                                     !- End Month
  31;                                     !- End Day

OS:Schedule:Day,
  {ad1b5699-1e29-4ba1-b424-42688d506cbc}, !- Handle
  heating setpoint day,                   !- Name
  {7cd64c52-e074-40a8-ab98-6bd11cda8322}, !- Schedule Type Limits Name
  ,                                       !- Interpolate to Timestep
  24,                                     !- Hour 1
  0,                                      !- Minute 1
  20;                                     !- Value Until Time 1

OS:Schedule:Ruleset,
  {d24af3c7-b28c-47ef-a696-031352313349}, !- Handle
  cooling setpoint,                       !- Name
  {7cd64c52-e074-40a8-ab98-6bd11cda8322}, !- Schedule Type Limits Name
  {a33cebdc-7687-4308-ada0-538e0b29b39c}; !- Default Day Schedule Name

OS:Schedule:Day,
  {a33cebdc-7687-4308-ada0-538e0b29b39c}, !- Handle
  cooling setpoint default day,           !- Name
  {7cd64c52-e074-40a8-ab98-6bd11cda8322}, !- Schedule Type Limits Name
  ,                                       !- Interpolate to Timestep
  24,                                     !- Hour 1
  0,                                      !- Minute 1
  0;                                      !- Value Until Time 1

OS:Schedule:Rule,
  {efb2ccb9-aa4d-43fd-a627-e6f3c3ffd39f}, !- Handle
  cooling setpoint allday rule,           !- Name
  {d24af3c7-b28c-47ef-a696-031352313349}, !- Schedule Ruleset Name
  0,                                      !- Rule Order
  {4cba2bad-178e-4aab-8ba7-b86b5e6b14a0}, !- Day Schedule Name
  Yes,                                    !- Apply Sunday
  Yes,                                    !- Apply Monday
  Yes,                                    !- Apply Tuesday
  Yes,                                    !- Apply Wednesday
  Yes,                                    !- Apply Thursday
  Yes,                                    !- Apply Friday
  Yes,                                    !- Apply Saturday
  DateRange,                              !- Date Specification Type
  1,                                      !- Start Month
  1,                                      !- Start Day
  12,                                     !- End Month
  31;                                     !- End Day

OS:Schedule:Day,
  {4cba2bad-178e-4aab-8ba7-b86b5e6b14a0}, !- Handle
  cooling setpoint day,                   !- Name
  {7cd64c52-e074-40a8-ab98-6bd11cda8322}, !- Schedule Type Limits Name
  ,                                       !- Interpolate to Timestep
  24,                                     !- Hour 1
  0,                                      !- Minute 1
  25.5555555555556;                       !- Value Until Time 1

OS:ThermostatSetpoint:DualSetpoint,
  {c05246de-869a-48f8-9809-95854da9dd1c}, !- Handle
  conditioned space temperature setpoint, !- Name
  {ee87af0d-3722-4e3b-94f5-909e24404b66}, !- Heating Setpoint Temperature Schedule Name
  {d24af3c7-b28c-47ef-a696-031352313349}, !- Cooling Setpoint Temperature Schedule Name
  0;                                      !- Temperature Difference Between Cutout And Setpoint {deltaC}

OS:ScheduleTypeLimits,
  {7cd64c52-e074-40a8-ab98-6bd11cda8322}, !- Handle
  Temperature,                            !- Name
  ,                                       !- Lower Limit Value
  ,                                       !- Upper Limit Value
  Continuous,                             !- Numeric Type
  Temperature;                            !- Unit Type

OS:Surface,
  {3904d6f8-682a-4a18-b3ff-e9a92cb6d994}, !- Handle
  Roof1,                                  !- Name
  RoofCeiling,                            !- Surface Type
  {2c6976aa-5c06-46e6-b6a6-926c39e38fdc}, !- Construction Name
  {f8d94cd0-cc22-4cca-8c2a-06e69c22be09}, !- Space Name
  Outdoors,                               !- Outside Boundary Condition
  ,                                       !- Outside Boundary Condition Object
  SunExposed,                             !- Sun Exposure
  WindExposed,                            !- Wind Exposure
  ,                                       !- View Factor to Ground
  ,                                       !- Number of Vertices
  -5.95628646053898, 5.95628646053898, 2.4384, !- X,Y,Z Vertex 1 {m}
  -5.95628646053898, -5.95628646053898, 2.4384, !- X,Y,Z Vertex 2 {m}
  5.95628646053898, -5.95628646053898, 2.4384, !- X,Y,Z Vertex 3 {m}
  5.95628646053898, 5.95628646053898, 2.4384; !- X,Y,Z Vertex 4 {m}

OS:AdditionalProperties,
  {0ffe16f7-ca0a-48e3-96eb-d6404a16853e}, !- Handle
  {3904d6f8-682a-4a18-b3ff-e9a92cb6d994}, !- Object Name
  Length,                                 !- Feature Name 1
  Double,                                 !- Feature Data Type 1
  39.083244491725608,                     !- Feature Value 1
  Width,                                  !- Feature Name 2
  Double,                                 !- Feature Data Type 2
  39.083244491725608,                     !- Feature Value 2
  Azimuth,                                !- Feature Name 3
  Integer,                                !- Feature Data Type 3
  0,                                      !- Feature Value 3
  Tilt,                                   !- Feature Name 4
  Double,                                 !- Feature Data Type 4
  0,                                      !- Feature Value 4
  SurfaceType,                            !- Feature Name 5
  String,                                 !- Feature Data Type 5
  Roof;                                   !- Feature Value 5

OS:Material,
  {655e998c-4854-4f76-b2a0-4f434d163807}, !- Handle
  asphalt or fiberglass shingles,         !- Name
  Rough,                                  !- Roughness
  0.00635,                                !- Thickness {m}
  0.162714,                               !- Conductivity {W/m-K}
  1121.4,                                 !- Density {kg/m3}
  1465.45,                                !- Specific Heat {J/kg-K}
  0.9,                                    !- Thermal Absorptance
  0.85,                                   !- Solar Absorptance
  0.85;                                   !- Visible Absorptance

OS:Material,
  {3d788b9b-65cd-49c2-8416-f4a473eb9bd9}, !- Handle
  roof stud and cavity,                   !- Name
  Rough,                                  !- Roughness
  0.0889,                                 !- Thickness {m}
  0.491900632004487,                      !- Conductivity {W/m-K}
  50.32683,                               !- Density {kg/m3}
  1063.80987585548,                       !- Specific Heat {J/kg-K}
  0.9,                                    !- Thermal Absorptance
  0.7,                                    !- Solar Absorptance
  0.7;                                    !- Visible Absorptance

OS:Material,
  {0d0996cd-8763-4d50-9c1c-24b8624700f2}, !- Handle
  gypsum board,                           !- Name
  Rough,                                  !- Roughness
  0.00254,                                !- Thickness {m}
  0.1602906,                              !- Conductivity {W/m-K}
  801,                                    !- Density {kg/m3}
  837.4,                                  !- Specific Heat {J/kg-K}
  0.9,                                    !- Thermal Absorptance
  0.6,                                    !- Solar Absorptance
  0.6;                                    !- Visible Absorptance

OS:Construction,
  {2c6976aa-5c06-46e6-b6a6-926c39e38fdc}, !- Handle
  Roof1 construction,                     !- Name
  ,                                       !- Surface Rendering Name
  {655e998c-4854-4f76-b2a0-4f434d163807}, !- Layer 1
  {3d788b9b-65cd-49c2-8416-f4a473eb9bd9}, !- Layer 2
  {0d0996cd-8763-4d50-9c1c-24b8624700f2}; !- Layer 3

OS:Surface,
  {c3e7d337-3696-487a-b8c1-76c55715cdc0}, !- Handle
  Wall1,                                  !- Name
  Wall,                                   !- Surface Type
  {92f6066d-0fe5-4ad1-970f-cb6c476e4c33}, !- Construction Name
  {f8d94cd0-cc22-4cca-8c2a-06e69c22be09}, !- Space Name
  Outdoors,                               !- Outside Boundary Condition
  ,                                       !- Outside Boundary Condition Object
  SunExposed,                             !- Sun Exposure
  WindExposed,                            !- Wind Exposure
  ,                                       !- View Factor to Ground
  ,                                       !- Number of Vertices
  -35.7504882769231, 36.6795186769231, 0, !- X,Y,Z Vertex 1 {m}
  -35.7504882769231, 36.6795186769231, 2.4384, !- X,Y,Z Vertex 2 {m}
  -21.9354282769231, 36.6795186769231, 2.4384, !- X,Y,Z Vertex 3 {m}
  -21.9354282769231, 36.6795186769231, 0; !- X,Y,Z Vertex 4 {m}

OS:AdditionalProperties,
  {11fa08b6-c6d2-416d-a957-86a97721965a}, !- Handle
  {c3e7d337-3696-487a-b8c1-76c55715cdc0}, !- Object Name
  Length,                                 !- Feature Name 1
  Double,                                 !- Feature Data Type 1
  45.325000000000003,                     !- Feature Value 1
  Azimuth,                                !- Feature Name 2
  Integer,                                !- Feature Data Type 2
  0,                                      !- Feature Value 2
  Tilt,                                   !- Feature Name 3
  Double,                                 !- Feature Data Type 3
  90,                                     !- Feature Value 3
  SurfaceType,                            !- Feature Name 4
  String,                                 !- Feature Data Type 4
  Wall;                                   !- Feature Value 4

OS:Material,
  {6523d502-1d76-473e-8bc9-8caeb23c7d7b}, !- Handle
  wood siding,                            !- Name
  Rough,                                  !- Roughness
  0.0254,                                 !- Thickness {m}
  0.1024175,                              !- Conductivity {W/m-K}
  544.68,                                 !- Density {kg/m3}
  1172.36,                                !- Specific Heat {J/kg-K}
  0.9,                                    !- Thermal Absorptance
  0.7,                                    !- Solar Absorptance
  0.7;                                    !- Visible Absorptance

OS:Material,
  {d4d642b7-2d23-4e78-a771-5f956fafc1df}, !- Handle
  osb sheathing 0.5 in.,                  !- Name
  Rough,                                  !- Roughness
  0.0127,                                 !- Thickness {m}
  0.1154577,                              !- Conductivity {W/m-K}
  512.64,                                 !- Density {kg/m3}
  1214.23,                                !- Specific Heat {J/kg-K}
  0.9,                                    !- Thermal Absorptance
  0.7,                                    !- Solar Absorptance
  0.7;                                    !- Visible Absorptance

OS:Material,
  {afd568d9-86a2-4dd6-a73a-2c5e75809c19}, !- Handle
  wall stud and cavity,                   !- Name
  Rough,                                  !- Roughness
  0.1397,                                 !- Thickness {m}
  0.0929021674204099,                     !- Conductivity {W/m-K}
  139.0536,                               !- Density {kg/m3}
  1170.23755760369,                       !- Specific Heat {J/kg-K}
  0.9,                                    !- Thermal Absorptance
  0.7,                                    !- Solar Absorptance
  0.7;                                    !- Visible Absorptance

OS:Material,
  {fa1dc8ef-833d-4850-b485-3b878649eb5b}, !- Handle
  gypsum board 1,                         !- Name
  Rough,                                  !- Roughness
  0.0127,                                 !- Thickness {m}
  0.1602906,                              !- Conductivity {W/m-K}
  801,                                    !- Density {kg/m3}
  837.4,                                  !- Specific Heat {J/kg-K}
  0.9,                                    !- Thermal Absorptance
  0.6,                                    !- Solar Absorptance
  0.6;                                    !- Visible Absorptance

OS:Construction,
  {92f6066d-0fe5-4ad1-970f-cb6c476e4c33}, !- Handle
  Wall1 construction,                     !- Name
  ,                                       !- Surface Rendering Name
  {6523d502-1d76-473e-8bc9-8caeb23c7d7b}, !- Layer 1
  {d4d642b7-2d23-4e78-a771-5f956fafc1df}, !- Layer 2
  {afd568d9-86a2-4dd6-a73a-2c5e75809c19}, !- Layer 3
  {fa1dc8ef-833d-4850-b485-3b878649eb5b}; !- Layer 4

OS:Surface,
  {1b89779f-5164-4e9b-a694-3b3974f3c43d}, !- Handle
  Wall2,                                  !- Name
  Wall,                                   !- Surface Type
  {1be7feeb-0223-4a58-b095-60d0faf9fa30}, !- Construction Name
  {f8d94cd0-cc22-4cca-8c2a-06e69c22be09}, !- Space Name
  Outdoors,                               !- Outside Boundary Condition
  ,                                       !- Outside Boundary Condition Object
  SunExposed,                             !- Sun Exposure
  WindExposed,                            !- Wind Exposure
  ,                                       !- View Factor to Ground
  ,                                       !- Number of Vertices
  36.6795186769231, -25.4732249435897, 0, !- X,Y,Z Vertex 1 {m}
  36.6795186769231, -25.4732249435897, 2.4384, !- X,Y,Z Vertex 2 {m}
  36.6795186769231, -32.3807549435897, 2.4384, !- X,Y,Z Vertex 3 {m}
  36.6795186769231, -32.3807549435897, 0; !- X,Y,Z Vertex 4 {m}

OS:AdditionalProperties,
  {465d1144-d96d-4e71-9569-f8fcca63914a}, !- Handle
  {1b89779f-5164-4e9b-a694-3b3974f3c43d}, !- Object Name
  Length,                                 !- Feature Name 1
  Double,                                 !- Feature Data Type 1
  22.662500000000001,                     !- Feature Value 1
  Azimuth,                                !- Feature Name 2