
OS:Version,
  {28b9ba97-ef15-480d-8210-9f5b3eb8c50f}, !- Handle
  3.9.0;                                  !- Version Identifier

OS:SimulationControl,
  {ec562036-e1d4-4f86-9d5e-ebeb3b307a1b}, !- Handle
  ,                                       !- Do Zone Sizing Calculation
  ,                                       !- Do System Sizing Calculation
  ,                                       !- Do Plant Sizing Calculation
  No;                                     !- Run Simulation for Sizing Periods

OS:Timestep,
  {c1e55034-aec4-44bd-a330-f66bd4c902c9}, !- Handle
  1;                                      !- Number of Timesteps per Hour

OS:ShadowCalculation,
  {bf97709e-80d7-4d55-88af-0900499d81a7}, !- Handle
  PolygonClipping,                        !- Shading Calculation Method
  ,                                       !- Shading Calculation Update Frequency Method
  20,                                     !- Shading Calculation Update Frequency
  200,                                    !- Maximum Figures in Shadow Overlap Calculations
  ,                                       !- Polygon Clipping Algorithm
  512,                                    !- Pixel Counting Resolution
  ,                                       !- Sky Diffuse Modeling Algorithm
  No,                                     !- Output External Shading Calculation Results
  No,                                     !- Disable Self-Shading Within Shading Zone Groups
  No;                                     !- Disable Self-Shading From Shading Zone Groups to Other Zones

OS:SurfaceConvectionAlgorithm:Outside,
  {0c541793-6a57-4967-9043-963b32d553c7}, !- Handle
  DOE-2;                                  !- Algorithm

OS:SurfaceConvectionAlgorithm:Inside,
  {94f64a4a-3244-4561-8346-7970901ad5b1}, !- Handle
  TARP;                                   !- Algorithm

OS:ZoneCapacitanceMultiplier:ResearchSpecial,
  {73b7eb2c-bb49-4aa4-b38f-5ea380220556}, !- Handle
  7,                                      !- Temperature Capacity Multiplier
  15,                                     !- Humidity Capacity Multiplier
  ;                                       !- Carbon Dioxide Capacity Multiplier

OS:ConvergenceLimits,
  {cfb728f1-7e07-4cbe-81c2-db29e3d1cf73}, !- Handle
  0;                                      !- Minimum System Timestep {minutes}

OS:RunPeriod,
  {0149a398-2f0d-4137-8513-fac70eae3690}, !- Handle
  Run Period 1,                           !- Name
  1,                                      !- Begin Month
  1,                                      !- Begin Day of Month
  12,                                     !- End Month
  31,                                     !- End Day of Month
  ,                                       !- Use Weather File Holidays and Special Days
  ,                                       !- Use Weather File Daylight Saving Period
  ,                                       !- Apply Weekend Holiday Rule
  ,                                       !- Use Weather File Rain Indicators
  ,                                       !- Use Weather File Snow Indicators
  ;                                       !- Number of Times Runperiod to be Repeated

OS:PerformancePrecisionTradeoffs,
  {23c578c2-13f3-482f-9def-91a5749ce74d}, !- Handle
  ,                                       !- Use Coil Direct Solutions
  CarrollMRT;                             !- Zone Radiant Exchange Algorithm

OS:WeatherFile,
  {df46fe64-4caf-49c7-b13a-5b46121cb46f}, !- Handle
  Buffalo Niagara Intl Ap,                !- City
  NY,                                     !- State Province Region
  USA,                                    !- Country
  TMY3,                                   !- Data Source
  725280,                                 !- WMO Number
  42.93,                                  !- Latitude {deg}
  -78.73,                                 !- Longitude {deg}
  -5,                                     !- Time Zone {hr}
  215,                                    !- Elevation {m}
  /Users/nmoore/github/urbanopt-example-geojson-project/example_project/weather/USA_NY_Buffalo-Greater.Buffalo.Intl.AP.725280_TMY3.epw, !- Url
  6B50E0FF,                               !- Checksum
  ,                                       !- Start Date Actual Year
  Sunday;                                 !- Start Day of Week

OS:YearDescription,
  {2c07d946-587d-47a9-808f-b4f9c8ee984e}, !- Handle
  2007,                                   !- Calendar Year
  ,                                       !- Day of Week for Start Day
  ;                                       !- Is Leap Year

OS:Site,
  {3428a79e-df46-4536-9137-508e2aa5cdba}, !- Handle
  Buffalo Niagara Intl Ap_NY,             !- Name
  42.93,                                  !- Latitude {deg}
  -78.73,                                 !- Longitude {deg}
  -5,                                     !- Time Zone {hr}
  215,                                    !- Elevation {m}
  Suburbs,                                !- Terrain
  Yes;                                    !- Keep Site Location Information

OS:RunPeriodControl:DaylightSavingTime,
  {82417a14-194b-418c-b311-e27b7de56410}, !- Handle
  Mar 12,                                 !- Start Date
  Nov 5;                                  !- End Date

OS:Site:GroundTemperature:Shallow,
  {cce0ec8c-35f8-4a9d-8058-bc4264593288}, !- Handle
  4.30207395723828,                       !- January Surface Ground Temperature {C}
  2.29327249652502,                       !- February Surface Ground Temperature {C}
  2.13240047156047,                       !- March Surface Ground Temperature {C}
  3.08567940719286,                       !- April Surface Ground Temperature {C}
  6.91256312497526,                       !- May Surface Ground Temperature {C}
  10.7216195949507,                       !- June Surface Ground Temperature {C}
  14.0238679822574,                       !- July Surface Ground Temperature {C}
  16.1157611184724,                       !- August Surface Ground Temperature {C}
  16.2934789303462,                       !- September Surface Ground Temperature {C}
  14.5920754632847,                       !- October Surface Ground Temperature {C}
  11.374036348653,                        !- November Surface Ground Temperature {C}
  7.68182621661674;                       !- December Surface Ground Temperature {C}

OS:ThermalZone,
  {687efc3b-e318-4e36-ac54-3ba0eb71888e}, !- Handle
  conditioned space,                      !- Name
  1,                                      !- Multiplier
  ,                                       !- Ceiling Height {m}
  951.587629724161,                       !- Volume {m3}
  ,                                       !- Floor Area {m2}
  ,                                       !- Zone Inside Convection Algorithm
  ,                                       !- Zone Outside Convection Algorithm
  ,                                       !- Zone Conditioning Equipment List Name
  {be80f405-45f9-43d9-b451-1011c21ede89}, !- Zone Air Inlet Port List
  {920dd30c-0597-4171-ab5e-cf50bb6d4a89}, !- Zone Air Exhaust Port List
  {24249a5c-f8f6-404f-9b70-2eb0fd5b737c}, !- Zone Air Node Name
  {937cf511-3976-4b28-a380-22cdf8f17f3a}, !- Zone Return Air Port List
  ,                                       !- Primary Daylighting Control Name
  ,                                       !- Fraction of Zone Controlled by Primary Daylighting Control
  ,                                       !- Secondary Daylighting Control Name
  ,                                       !- Fraction of Zone Controlled by Secondary Daylighting Control
  ,                                       !- Illuminance Map Name
  ,                                       !- Group Rendering Name
  {6aad8f2e-211e-4d27-8597-7b330bf6a99c}, !- Thermostat Name
  No;                                     !- Use Ideal Air Loads

OS:Node,
  {aafccfd3-cc68-47fc-bce2-c73615af535e}, !- Handle
  Node 1,                                 !- Name
  {24249a5c-f8f6-404f-9b70-2eb0fd5b737c}, !- Inlet Port
  ;                                       !- Outlet Port

OS:Connection,
  {24249a5c-f8f6-404f-9b70-2eb0fd5b737c}, !- Handle
  {687efc3b-e318-4e36-ac54-3ba0eb71888e}, !- Source Object
  11,                                     !- Outlet Port
  {aafccfd3-cc68-47fc-bce2-c73615af535e}, !- Target Object
  2;                                      !- Inlet Port

OS:PortList,
  {be80f405-45f9-43d9-b451-1011c21ede89}, !- Handle
  {687efc3b-e318-4e36-ac54-3ba0eb71888e}, !- HVAC Component
  {2fafc614-c776-4bf9-ad64-1c5643f34c1d}; !- Port 1

OS:PortList,
  {920dd30c-0597-4171-ab5e-cf50bb6d4a89}, !- Handle
  {687efc3b-e318-4e36-ac54-3ba0eb71888e}; !- HVAC Component

OS:PortList,
  {937cf511-3976-4b28-a380-22cdf8f17f3a}, !- Handle
  {687efc3b-e318-4e36-ac54-3ba0eb71888e}, !- HVAC Component
  {7ff4f844-2082-4838-a3c1-bf7cc8d8dda4}; !- Port 1

OS:Sizing:Zone,
  {67107cad-3084-4d25-ab72-0503f9258100}, !- Handle
  {687efc3b-e318-4e36-ac54-3ba0eb71888e}, !- Zone or ZoneList Name
  SupplyAirTemperature,                   !- Zone Cooling Design Supply Air Temperature Input Method
  14,                                     !- Zone Cooling Design Supply Air Temperature {C}
  11.11,                                  !- Zone Cooling Design Supply Air Temperature Difference {deltaC}
  SupplyAirTemperature,                   !- Zone Heating Design Supply Air Temperature Input Method
  40,                                     !- Zone Heating Design Supply Air Temperature {C}
  11.11,                                  !- Zone Heating Design Supply Air Temperature Difference {deltaC}
  0.0085,                                 !- Zone Cooling Design Supply Air Humidity Ratio {kg-H2O/kg-air}
  0.008,                                  !- Zone Heating Design Supply Air Humidity Ratio {kg-H2O/kg-air}
  ,                                       !- Zone Heating Sizing Factor
  ,                                       !- Zone Cooling Sizing Factor
  DesignDay,                              !- Cooling Design Air Flow Method
  ,                                       !- Cooling Design Air Flow Rate {m3/s}
  ,                                       !- Cooling Minimum Air Flow per Zone Floor Area {m3/s-m2}
  ,                                       !- Cooling Minimum Air Flow {m3/s}
  ,                                       !- Cooling Minimum Air Flow Fraction
  DesignDay,                              !- Heating Design Air Flow Method
  ,                                       !- Heating Design Air Flow Rate {m3/s}
  ,                                       !- Heating Maximum Air Flow per Zone Floor Area {m3/s-m2}
  ,                                       !- Heating Maximum Air Flow {m3/s}
  ,                                       !- Heating Maximum Air Flow Fraction
  No,                                     !- Account for Dedicated Outdoor Air System
  NeutralSupplyAir,                       !- Dedicated Outdoor Air System Control Strategy
  autosize,                               !- Dedicated Outdoor Air Low Setpoint Temperature for Design {C}
  autosize,                               !- Dedicated Outdoor Air High Setpoint Temperature for Design {C}
  Sensible Load Only No Latent Load,      !- Zone Load Sizing Method
  HumidityRatioDifference,                !- Zone Latent Cooling Design Supply Air Humidity Ratio Input Method
  ,                                       !- Zone Dehumidification Design Supply Air Humidity Ratio {kgWater/kgDryAir}
  0.005,                                  !- Zone Cooling Design Supply Air Humidity Ratio Difference {kgWater/kgDryAir}
  HumidityRatioDifference,                !- Zone Latent Heating Design Supply Air Humidity Ratio Input Method
  ,                                       !- Zone Humidification Design Supply Air Humidity Ratio {kgWater/kgDryAir}
  0.005,                                  !- Zone Humidification Design Supply Air Humidity Ratio Difference {kgWater/kgDryAir}
  ,                                       !- Zone Humidistat Dehumidification Set Point Schedule Name
  ,                                       !- Zone Humidistat Humidification Set Point Schedule Name
  ,                                       !- Design Zone Air Distribution Effectiveness in Cooling Mode
  ,                                       !- Design Zone Air Distribution Effectiveness in Heating Mode
  ,                                       !- Design Zone Secondary Recirculation Fraction {dimensionless}
  ,                                       !- Design Minimum Zone Ventilation Efficiency {dimensionless}
  Coincident;                             !- Sizing Option

OS:ZoneHVAC:EquipmentList,
  {ac1d151a-dc4c-4a91-b439-c4845e901170}, !- Handle
  Zone HVAC Equipment List 1,             !- Name
  {687efc3b-e318-4e36-ac54-3ba0eb71888e}, !- Thermal Zone
  ,                                       !- Load Distribution Scheme
  {c9677c2d-998b-43c4-8caf-46aaefe33d35}, !- Zone Equipment 1
  1,                                      !- Zone Equipment Cooling Sequence 1
  1,                                      !- Zone Equipment Heating or No-Load Sequence 1
  {3b38160c-d7ae-4fcd-8325-a9d8ce2f5b4d}, !- Zone Equipment Sequential Cooling Fraction Schedule Name 1
  {8f633b8d-1365-4737-a045-81f1e7ba564e}; !- Zone Equipment Sequential Heating Fraction Schedule Name 1

OS:AdditionalProperties,
  {c8cdd9b7-da02-44c5-9c24-725015b0e266}, !- Handle
  {687efc3b-e318-4e36-ac54-3ba0eb71888e}, !- Object Name
  ObjectType,                             !- Feature Name 1
  String,                                 !- Feature Data Type 1
  conditioned space;                      !- Feature Value 1

OS:Space,
  {442f1d60-c061-44e0-9c75-73ae9338f34c}, !- Handle
  conditioned space 1,                    !- Name
  ,                                       !- Space Type Name
  ,                                       !- Default Construction Set Name
  ,                                       !- Default Schedule Set Name
  ,                                       !- Direction of Relative North {deg}
  ,                                       !- X Origin {m}
  ,                                       !- Y Origin {m}
  ,                                       !- Z Origin {m}
  ,                                       !- Building Story Name
  {687efc3b-e318-4e36-ac54-3ba0eb71888e}, !- Thermal Zone Name
  ,                                       !- Part of Total Floor Area
  ,                                       !- Design Specification Outdoor Air Object Name
  ,                                       !- Building Unit Name
  951.587629724161;                       !- Volume {m3}

OS:Schedule:Ruleset,
  {8940a700-1c8f-49db-9c63-aa1be592eba7}, !- Handle
  heating setpoint,                       !- Name
  {3f473f5e-9227-450a-b4b1-fc79692f3ff7}, !- Schedule Type Limits Name
  {104a7960-4594-4246-b9b4-8adacfd5765c}; !- Default Day Schedule Name

OS:Schedule:Day,
  {104a7960-4594-4246-b9b4-8adacfd5765c}, !- Handle
  heating setpoint default day,           !- Name
  {3f473f5e-9227-450a-b4b1-fc79692f3ff7}, !- Schedule Type Limits Name
  ,                                       !- Interpolate to Timestep
  24,                                     !- Hour 1
  0,                                      !- Minute 1
  0;                                      !- Value Until Time 1

OS:Schedule:Rule,
  {d49d7224-15d6-4297-beb1-65c6cb095cce}, !- Handle
  heating setpoint allday rule,           !- Name
  {8940a700-1c8f-49db-9c63-aa1be592eba7}, !- Schedule Ruleset Name
  0,                                      !- Rule Order
  {eeb9dd3f-6c69-4549-b11b-6e7042a3f006}, !- Day Schedule Name
  Yes,                                    !- Apply Sunday
  Yes,                                    !- Apply Monday
  Yes,                                    !- Apply Tuesday
  Yes,                                    !- Apply Wednesday
  Yes,                                    !- Apply Thursday
  Yes,                                    !- Apply Friday
  Yes,                                    !- Apply Saturday
  DateRange,                              !- Date Specification Type
  1,                                      !- Start Month
  1,                                      !- Start Day
  12,                                     !- End Month
  31;                                     !- End Day

OS:Schedule:Day,
  {eeb9dd3f-6c69-4549-b11b-6e7042a3f006}, !- Handle
  heating setpoint day,                   !- Name
  {3f473f5e-9227-450a-b4b1-fc79692f3ff7}, !- Schedule Type Limits Name
  ,                                       !- Interpolate to Timestep
  24,                                     !- Hour 1
  0,                                      !- Minute 1
  20;                                     !- Value Until Time 1

OS:Schedule:Ruleset,
  {e9309d1c-7ea4-44d4-87ac-137125efbc66}, !- Handle
  cooling setpoint,                       !- Name
  {3f473f5e-9227-450a-b4b1-fc79692f3ff7}, !- Schedule Type Limits Name
  {0c8dc056-db3a-42c9-9d10-885fa78d2479}; !- Default Day Schedule Name

OS:Schedule:Day,
  {0c8dc056-db3a-42c9-9d10-885fa78d2479}, !- Handle
  cooling setpoint default day,           !- Name
  {3f473f5e-9227-450a-b4b1-fc79692f3ff7}, !- Schedule Type Limits Name
  ,                                       !- Interpolate to Timestep
  24,                                     !- Hour 1
  0,                                      !- Minute 1
  0;                                      !- Value Until Time 1

OS:Schedule:Rule,
  {2088e54c-a024-4256-ad7b-8756214cc9ee}, !- Handle
  cooling setpoint allday rule,           !- Name
  {e9309d1c-7ea4-44d4-87ac-137125efbc66}, !- Schedule Ruleset Name
  0,                                      !- Rule Order
  {e5b27c47-decd-419a-810f-fe23fafe07e5}, !- Day Schedule Name
  Yes,                                    !- Apply Sunday
  Yes,                                    !- Apply Monday
  Yes,                                    !- Apply Tuesday
  Yes,                                    !- Apply Wednesday
  Yes,                                    !- Apply Thursday
  Yes,                                    !- Apply Friday
  Yes,                                    !- Apply Saturday
  DateRange,                              !- Date Specification Type
  1,                                      !- Start Month
  1,                                      !- Start Day
  12,                                     !- End Month
  31;                                     !- End Day

OS:Schedule:Day,
  {e5b27c47-decd-419a-810f-fe23fafe07e5}, !- Handle
  cooling setpoint day,                   !- Name
  {3f473f5e-9227-450a-b4b1-fc79692f3ff7}, !- Schedule Type Limits Name
  ,                                       !- Interpolate to Timestep
  24,                                     !- Hour 1
  0,                                      !- Minute 1
  25.5555555555556;                       !- Value Until Time 1

OS:ThermostatSetpoint:DualSetpoint,
  {6aad8f2e-211e-4d27-8597-7b330bf6a99c}, !- Handle
  conditioned space temperature setpoint, !- Name
  {8940a700-1c8f-49db-9c63-aa1be592eba7}, !- Heating Setpoint Temperature Schedule Name
  {e9309d1c-7ea4-44d4-87ac-137125efbc66}, !- Cooling Setpoint Temperature Schedule Name
  0;                                      !- Temperature Difference Between Cutout And Setpoint {deltaC}

OS:ScheduleTypeLimits,
  {3f473f5e-9227-450a-b4b1-fc79692f3ff7}, !- Handle
  Temperature,                            !- Name
  ,                                       !- Lower Limit Value
  ,                                       !- Upper Limit Value
  Continuous,                             !- Numeric Type
  Temperature;                            !- Unit Type

OS:Surface,
  {4b4a58c9-7db3-42f0-925b-45a0e90da975}, !- Handle
  Roof1,                                  !- Name
  RoofCeiling,                            !- Surface Type
  {2435e099-bfc7-4048-b688-189fd8b37103}, !- Construction Name
  {442f1d60-c061-44e0-9c75-73ae9338f34c}, !- Space Name
  Outdoors,                               !- Outside Boundary Condition
  ,                                       !- Outside Boundary Condition Object
  SunExposed,                             !- Sun Exposure
  WindExposed,                            !- Wind Exposure
  ,                                       !- View Factor to Ground
  ,                                       !- Number of Vertices
  -8.42346109387347, 8.42346109387347, 2.4384, !- X,Y,Z Vertex 1 {m}
  -8.42346109387347, -8.42346109387347, 2.4384, !- X,Y,Z Vertex 2 {m}
  8.42346109387347, -8.42346109387347, 2.4384, !- X,Y,Z Vertex 3 {m}
  8.42346109387347, 8.42346109387347, 2.4384; !- X,Y,Z Vertex 4 {m}

OS:AdditionalProperties,
  {d10782e4-eb90-41cb-ab8e-77fa7596f38c}, !- Handle
  {4b4a58c9-7db3-42f0-925b-45a0e90da975}, !- Object Name
  Length,                                 !- Feature Name 1
  Double,                                 !- Feature Data Type 1
  55.27205442174192,                      !- Feature Value 1
  Width,                                  !- Feature Name 2
  Double,                                 !- Feature Data Type 2
  55.272054421741913,                     !- Feature Value 2
  Azimuth,                                !- Feature Name 3
  Integer,                                !- Feature Data Type 3
  0,                                      !- Feature Value 3
  Tilt,                                   !- Feature Name 4
  Double,                                 !- Feature Data Type 4
  0,                                      !- Feature Value 4
  SurfaceType,                            !- Feature Name 5
  String,                                 !- Feature Data Type 5
  Roof;                                   !- Feature Value 5

OS:Material,
  {00d94e96-6662-482c-8f0d-ddd79631efec}, !- Handle
  asphalt or fiberglass shingles,         !- Name
  Rough,                                  !- Roughness
  0.00635,                                !- Thickness {m}
  0.162714,                               !- Conductivity {W/m-K}
  1121.4,                                 !- Density {kg/m3}
  1465.45,                                !- Specific Heat {J/kg-K}
  0.9,                                    !- Thermal Absorptance
  0.85,                                   !- Solar Absorptance
  0.85;                                   !- Visible Absorptance

OS:Material,
  {0e5b7882-73d9-4307-a389-69959307532a}, !- Handle
  roof stud and cavity,                   !- Name
  Rough,                                  !- Roughness
  0.0889,                                 !- Thickness {m}
  0.491900632004487,                      !- Conductivity {W/m-K}
  50.32683,                               !- Density {kg/m3}
  1063.80987585548,                       !- Specific Heat {J/kg-K}
  0.9,                                    !- Thermal Absorptance
  0.7,                                    !- Solar Absorptance
  0.7;                                    !- Visible Absorptance

OS:Material,
  {7105fc31-635c-4f3f-93d8-a07af1c57ed7}, !- Handle
  gypsum board,                           !- Name
  Rough,                                  !- Roughness
  0.00254,                                !- Thickness {m}
  0.1602906,                              !- Conductivity {W/m-K}
  801,                                    !- Density {kg/m3}
  837.4,                                  !- Specific Heat {J/kg-K}
  0.9,                                    !- Thermal Absorptance
  0.6,                                    !- Solar Absorptance
  0.6;                                    !- Visible Absorptance

OS:Construction,
  {2435e099-bfc7-4048-b688-189fd8b37103}, !- Handle
  Roof1 construction,                     !- Name
  ,                                       !- Surface Rendering Name
  {00d94e96-6662-482c-8f0d-ddd79631efec}, !- Layer 1
  {0e5b7882-73d9-4307-a389-69959307532a}, !- Layer 2
  {7105fc31-635c-4f3f-93d8-a07af1c57ed7}; !- Layer 3

OS:Surface,
  {072fcfd2-b4c3-464e-9005-ec27380da4b4}, !- Handle
  Wall1,                                  !- Name
  Wall,                                   !- Surface Type
  {4c8aade3-ad3f-4a66-8236-934ce412b768}, !- Construction Name
  {442f1d60-c061-44e0-9c75-73ae9338f34c}, !- Space Name
  Outdoors,                               !- Outside Boundary Condition
  ,                                       !- Outside Boundary Condition Object
  SunExposed,                             !- Sun Exposure
  WindExposed,                            !- Wind Exposure
  ,                                       !- View Factor to Ground
  ,                                       !- Number of Vertices
  -50.3642317384615, 51.2932621384616, 0, !- X,Y,Z Vertex 1 {m}
  -50.3642317384615, 51.2932621384616, 2.4384, !- X,Y,Z Vertex 2 {m}
  -30.8303617384615, 51.2932621384616, 2.4384, !- X,Y,Z Vertex 3 {m}
  -30.8303617384615, 51.2932621384616, 0; !- X,Y,Z Vertex 4 {m}

OS:AdditionalProperties,
  {571da3ea-2319-45c4-bea6-59c2485e7edb}, !- Handle
  {072fcfd2-b4c3-464e-9005-ec27380da4b4}, !- Object Name
  Length,                                 !- Feature Name 1
  Double,                                 !- Feature Data Type 1
  64.087499999999991,                     !- Feature Value 1
  Azimuth,                                !- Feature Name 2
  Integer,                                !- Feature Data Type 2
  0,                                      !- Feature Value 2
  Tilt,                                   !- Feature Name 3
  Double,                                 !- Feature Data Type 3
  90,                                     !- Feature Value 3
  SurfaceType,                            !- Feature Name 4
  String,                                 !- Feature Data Type 4
  Wall;                                   !- Feature Value 4

OS:Material,
  {b910d072-58f0-45e0-97bb-0987810f16c4}, !- Handle
  wood siding,                            !- Name
  Rough,                                  !- Roughness
  0.0254,                                 !- Thickness {m}
  0.1024175,                              !- Conductivity {W/m-K}
  544.68,                                 !- Density {kg/m3}
  1172.36,                                !- Specific Heat {J/kg-K}
  0.9,                                    !- Thermal Absorptance
  0.7,                                    !- Solar Absorptance
  0.7;                                    !- Visible Absorptance

OS:Material,
  {32a2bc66-d225-45cd-ad6a-0b082a7842db}, !- Handle
  osb sheathing 0.5 in.,                  !- Name
  Rough,                                  !- Roughness
  0.0127,                                 !- Thickness {m}
  0.1154577,                              !- Conductivity {W/m-K}
  512.64,                                 !- Density {kg/m3}
  1214.23,                                !- Specific Heat {J/kg-K}
  0.9,                                    !- Thermal Absorptance
  0.7,                                    !- Solar Absorptance
  0.7;                                    !- Visible Absorptance

OS:Material,
  {00b7f701-9f55-406a-9729-519eb960480c}, !- Handle
  wall stud and cavity,                   !- Name
  Rough,                                  !- Roughness
  0.1397,                                 !- Thickness {m}
  0.0929021674204099,                     !- Conductivity {W/m-K}
  139.0536,                               !- Density {kg/m3}
  1170.23755760369,                       !- Specific Heat {J/kg-K}
  0.9,                                    !- Thermal Absorptance
  0.7,                                    !- Solar Absorptance
  0.7;                                    !- Visible Absorptance

OS:Material,
  {fc4625ce-c882-4ae1-bf9b-d437c11fe546}, !- Handle
  gypsum board 1,                         !- Name
  Rough,                                  !- Roughness
  0.0127,                                 !- Thickness {m}
  0.1602906,                              !- Conductivity {W/m-K}
  801,                                    !- Density {kg/m3}
  837.4,                                  !- Specific Heat {J/kg-K}
  0.9,                                    !- Thermal Absorptance
  0.6,                                    !- Solar Absorptance
  0.6;                                    !- Visible Absorptance

OS:Construction,
  {4c8aade3-ad3f-4a66-8236-934ce412b768}, !- Handle
  Wall1 construction,                     !- Name
  ,                                       !- Surface Rendering Name
  {b910d072-58f0-45e0-97bb-0987810f16c4}, !- Layer 1
  {32a2bc66-d225-45cd-ad6a-0b082a7842db}, !- Layer 2
  {00b7f701-9f55-406a-9729-519eb960480c}, !- Layer 3
  {fc4625ce-c882-4ae1-bf9b-d437c11fe546}; !- Layer 4

OS:Surface,
  {01f572dd-339d-4041-93fc-4e88a5fb7937}, !- Handle
  Wall2,                                  !- Name
  Wall,                                   !- Surface Type
  {40fa36dc-617e-4577-a1ad-eda849388332}, !- Construction Name
  {442f1d60-c061-44e0-9c75-73ae9338f34c}, !- Space Name
  Outdoors,                               !- Outside Boundary Condition
  ,                                       !- Outside Boundary Condition Object
  SunExposed,                             !- Sun Exposure
  WindExposed,                            !- Wind Exposure
  ,                                       !- View Factor to Ground
  ,                                       !- Number of Vertices
  51.2932621384616, -36.1953302, 0,       !- X,Y,Z Vertex 1 {m}
  51.2932621384616, -36.1953302, 2.4384,  !- X,Y,Z Vertex 2 {m}
  51.2932621384616, -45.9641702, 2.4384,  !- X,Y,Z Vertex 3 {m}
  51.2932621384616, -45.9641702, 0;       !- X,Y,Z Vertex 4 {m}

OS:AdditionalProperties,
  {9883c7ea-65bd-48f7-8775-96fffaf89da8}, !- Handle
  {01f572dd-339d-4041-93fc-4e88a5fb7937}, !- Object Name
  Length,                                 !- Feature Name 1
  Double,                                 !- Feature Data Type 1
  32.049999999999997,                     !- Feature Value 1
  Azimuth,                                !- Feature Name 2