
OS:Version,
  {e1373cb4-e4c7-408a-84d8-ab938ee2327c}, !- Handle
  3.10.0;                                 !- Version Identifier

OS:SimulationControl,
  {2e472e94-733e-4c04-b782-e9743764b394}, !- Handle
  ,                                       !- Do Zone Sizing Calculation
  ,                                       !- Do System Sizing Calculation
  ,                                       !- Do Plant Sizing Calculation
  No;                                     !- Run Simulation for Sizing Periods

OS:Timestep,
  {b8e80883-b8d0-4f89-bdf9-263c6d0dedd2}, !- Handle
  1;                                      !- Number of Timesteps per Hour

OS:ShadowCalculation,
  {ac158591-24c7-46b7-be8d-99e6e1e4c475}, !- Handle
  PolygonClipping,                        !- Shading Calculation Method
  ,                                       !- Shading Calculation Update Frequency Method
  20,                                     !- Shading Calculation Update Frequency
  200,                                    !- Maximum Figures in Shadow Overlap Calculations
  ,                                       !- Polygon Clipping Algorithm
  512,                                    !- Pixel Counting Resolution
  ,                                       !- Sky Diffuse Modeling Algorithm
  No,                                     !- Output External Shading Calculation Results
  No,                                     !- Disable Self-Shading Within Shading Zone Groups
  No;                                     !- Disable Self-Shading From Shading Zone Groups to Other Zones

OS:SurfaceConvectionAlgorithm:Outside,
  {ddf56bed-ddd6-4aa1-9871-86319f0e72bc}, !- Handle
  DOE-2;                                  !- Algorithm

OS:SurfaceConvectionAlgorithm:Inside,
  {a15f4863-3316-47f0-8113-5ecd13804ca8}, !- Handle
  TARP;                                   !- Algorithm

OS:ZoneCapacitanceMultiplier:ResearchSpecial,
  {9ff3dd1f-e796-4b25-a33f-f608e382b1d3}, !- Handle
  7,                                      !- Temperature Capacity Multiplier
  15,                                     !- Humidity Capacity Multiplier
  ;                                       !- Carbon Dioxide Capacity Multiplier

OS:ConvergenceLimits,
  {ba81b986-9f82-494b-86d1-b2bd068d5a22}, !- Handle
  0;                                      !- Minimum System Timestep {minutes}

OS:RunPeriod,
  {6d58d35e-b62c-499b-b52e-698ed2db8f64}, !- Handle
  Run Period 1,                           !- Name
  1,                                      !- Begin Month
  1,                                      !- Begin Day of Month
  12,                                     !- End Month
  31,                                     !- End Day of Month
  ,                                       !- Use Weather File Holidays and Special Days
  ,                                       !- Use Weather File Daylight Saving Period
  ,                                       !- Apply Weekend Holiday Rule
  ,                                       !- Use Weather File Rain Indicators
  ,                                       !- Use Weather File Snow Indicators
  ;                                       !- Number of Times Runperiod to be Repeated

OS:PerformancePrecisionTradeoffs,
  {04dd5273-04ee-4f40-abf5-4d546fe77c25}, !- Handle
  ,                                       !- Use Coil Direct Solutions
  CarrollMRT;                             !- Zone Radiant Exchange Algorithm

OS:WeatherFile,
  {f55ff027-f9ff-4393-8e49-cf85e4c70f9d}, !- Handle
  Buffalo Niagara Intl Ap,                !- City
  NY,                                     !- State Province Region
  USA,                                    !- Country
  TMY3,                                   !- Data Source
  725280,                                 !- WMO Number
  42.93,                                  !- Latitude {deg}
  -78.73,                                 !- Longitude {deg}
  -5,                                     !- Time Zone {hr}
  215,                                    !- Elevation {m}
  /Users/nmoore/github/urbanopt-example-geojson-project/example_project/weather/USA_NY_Buffalo-Greater.Buffalo.Intl.AP.725280_TMY3.epw, !- Url
  6B50E0FF,                               !- Checksum
  ,                                       !- Start Date Actual Year
  Sunday;                                 !- Start Day of Week

OS:YearDescription,
  {49a8da05-5319-43ca-bdba-92cabcbec919}, !- Handle
  2007,                                   !- Calendar Year
  ,                                       !- Day of Week for Start Day
  ;                                       !- Is Leap Year

OS:Site,
  {88601389-98d1-4a57-9103-a95143c475b1}, !- Handle
  Buffalo Niagara Intl Ap_NY,             !- Name
  42.93,                                  !- Latitude {deg}
  -78.73,                                 !- Longitude {deg}
  -5,                                     !- Time Zone {hr}
  215,                                    !- Elevation {m}
  Suburbs,                                !- Terrain
  Yes;                                    !- Keep Site Location Information

OS:RunPeriodControl:DaylightSavingTime,
  {dc0d3ecc-b57c-41dd-a8e8-3fbd0dfae280}, !- Handle
  Mar 12,                                 !- Start Date
  Nov 5;                                  !- End Date

OS:Site:GroundTemperature:Shallow,
  {e3f04519-b069-44f5-bd7b-a97561ea0b52}, !- Handle
  4.30207395723828,                       !- January Surface Ground Temperature {C}
  2.29327249652502,                       !- February Surface Ground Temperature {C}
  2.13240047156047,                       !- March Surface Ground Temperature {C}
  3.08567940719286,                       !- April Surface Ground Temperature {C}
  6.91256312497526,                       !- May Surface Ground Temperature {C}
  10.7216195949507,                       !- June Surface Ground Temperature {C}
  14.0238679822574,                       !- July Surface Ground Temperature {C}
  16.1157611184724,                       !- August Surface Ground Temperature {C}
  16.2934789303462,                       !- September Surface Ground Temperature {C}
  14.5920754632847,                       !- October Surface Ground Temperature {C}
  11.374036348653,                        !- November Surface Ground Temperature {C}
  7.68182621661674;                       !- December Surface Ground Temperature {C}

OS:ThermalZone,
  {2092eeb1-2b75-4f71-84ce-5d8fa51109bf}, !- Handle
  conditioned space,                      !- Name
  1,                                      !- Multiplier
  ,                                       !- Ceiling Height {m}
  951.587629724161,                       !- Volume {m3}
  ,                                       !- Floor Area {m2}
  ,                                       !- Zone Inside Convection Algorithm
  ,                                       !- Zone Outside Convection Algorithm
  ,                                       !- Zone Conditioning Equipment List Name
  {ec72e32f-4575-463a-9053-0d244172ef28}, !- Zone Air Inlet Port List
  {28b3355c-d891-4456-8ca9-f004a453a912}, !- Zone Air Exhaust Port List
  {4cde2fb7-dc33-4085-b94a-fd8e50202e49}, !- Zone Air Node Name
  {5260fea9-4f86-416f-bed3-caa548a5855a}, !- Zone Return Air Port List
  ,                                       !- Primary Daylighting Control Name
  ,                                       !- Fraction of Zone Controlled by Primary Daylighting Control
  ,                                       !- Secondary Daylighting Control Name
  ,                                       !- Fraction of Zone Controlled by Secondary Daylighting Control
  ,                                       !- Illuminance Map Name
  ,                                       !- Group Rendering Name
  {b7249979-a441-49fe-9e6f-a6ba4e87b723}, !- Thermostat Name
  No;                                     !- Use Ideal Air Loads

OS:Node,
  {0ba3cd5a-caea-4828-8fda-0e230c7542dc}, !- Handle
  Node 1,                                 !- Name
  {4cde2fb7-dc33-4085-b94a-fd8e50202e49}, !- Inlet Port
  ;                                       !- Outlet Port

OS:Connection,
  {4cde2fb7-dc33-4085-b94a-fd8e50202e49}, !- Handle
  {2092eeb1-2b75-4f71-84ce-5d8fa51109bf}, !- Source Object
  11,                                     !- Outlet Port
  {0ba3cd5a-caea-4828-8fda-0e230c7542dc}, !- Target Object
  2;                                      !- Inlet Port

OS:PortList,
  {ec72e32f-4575-463a-9053-0d244172ef28}, !- Handle
  {2092eeb1-2b75-4f71-84ce-5d8fa51109bf}, !- HVAC Component
  {04d0de0e-2bce-4d5c-9f8d-385a14f5848f}; !- Port 1

OS:PortList,
  {28b3355c-d891-4456-8ca9-f004a453a912}, !- Handle
  {2092eeb1-2b75-4f71-84ce-5d8fa51109bf}; !- HVAC Component

OS:PortList,
  {5260fea9-4f86-416f-bed3-caa548a5855a}, !- Handle
  {2092eeb1-2b75-4f71-84ce-5d8fa51109bf}, !- HVAC Component
  {c05ca984-11d1-46b2-ae36-9409fd62e6af}; !- Port 1

OS:Sizing:Zone,
  {17071549-f210-424d-9150-2cb147201e63}, !- Handle
  {2092eeb1-2b75-4f71-84ce-5d8fa51109bf}, !- Zone or ZoneList Name
  SupplyAirTemperature,                   !- Zone Cooling Design Supply Air Temperature Input Method
  14,                                     !- Zone Cooling Design Supply Air Temperature {C}
  11.11,                                  !- Zone Cooling Design Supply Air Temperature Difference {deltaC}
  SupplyAirTemperature,                   !- Zone Heating Design Supply Air Temperature Input Method
  40,                                     !- Zone Heating Design Supply Air Temperature {C}
  11.11,                                  !- Zone Heating Design Supply Air Temperature Difference {deltaC}
  0.0085,                                 !- Zone Cooling Design Supply Air Humidity Ratio {kg-H2O/kg-air}
  0.008,                                  !- Zone Heating Design Supply Air Humidity Ratio {kg-H2O/kg-air}
  ,                                       !- Zone Heating Sizing Factor
  ,                                       !- Zone Cooling Sizing Factor
  DesignDay,                              !- Cooling Design Air Flow Method
  ,                                       !- Cooling Design Air Flow Rate {m3/s}
  ,                                       !- Cooling Minimum Air Flow per Zone Floor Area {m3/s-m2}
  ,                                       !- Cooling Minimum Air Flow {m3/s}
  ,                                       !- Cooling Minimum Air Flow Fraction
  DesignDay,                              !- Heating Design Air Flow Method
  ,                                       !- Heating Design Air Flow Rate {m3/s}
  ,                                       !- Heating Maximum Air Flow per Zone Floor Area {m3/s-m2}
  ,                                       !- Heating Maximum Air Flow {m3/s}
  ,                                       !- Heating Maximum Air Flow Fraction
  No,                                     !- Account for Dedicated Outdoor Air System
  NeutralSupplyAir,                       !- Dedicated Outdoor Air System Control Strategy
  autosize,                               !- Dedicated Outdoor Air Low Setpoint Temperature for Design {C}
  autosize,                               !- Dedicated Outdoor Air High Setpoint Temperature for Design {C}
  Sensible Load Only No Latent Load,      !- Zone Load Sizing Method
  HumidityRatioDifference,                !- Zone Latent Cooling Design Supply Air Humidity Ratio Input Method
  ,                                       !- Zone Dehumidification Design Supply Air Humidity Ratio {kgWater/kgDryAir}
  0.005,                                  !- Zone Cooling Design Supply Air Humidity Ratio Difference {kgWater/kgDryAir}
  HumidityRatioDifference,                !- Zone Latent Heating Design Supply Air Humidity Ratio Input Method
  ,                                       !- Zone Humidification Design Supply Air Humidity Ratio {kgWater/kgDryAir}
  0.005,                                  !- Zone Humidification Design Supply Air Humidity Ratio Difference {kgWater/kgDryAir}
  ,                                       !- Zone Humidistat Dehumidification Set Point Schedule Name
  ,                                       !- Zone Humidistat Humidification Set Point Schedule Name
  ,                                       !- Design Zone Air Distribution Effectiveness in Cooling Mode
  ,                                       !- Design Zone Air Distribution Effectiveness in Heating Mode
  ,                                       !- Design Zone Secondary Recirculation Fraction {dimensionless}
  ,                                       !- Design Minimum Zone Ventilation Efficiency {dimensionless}
  Coincident;                             !- Sizing Option

OS:ZoneHVAC:EquipmentList,
  {8ece1620-1d4b-43c8-92aa-cd458e150ab6}, !- Handle
  Zone HVAC Equipment List 1,             !- Name
  {2092eeb1-2b75-4f71-84ce-5d8fa51109bf}, !- Thermal Zone
  ,                                       !- Load Distribution Scheme
  {c4f8960d-c5fe-415d-bf1a-22d5df0a977b}, !- Zone Equipment 1
  1,                                      !- Zone Equipment Cooling Sequence 1
  1,                                      !- Zone Equipment Heating or No-Load Sequence 1
  {9ad72578-2ccf-4105-8903-93ab57d1a101}, !- Zone Equipment Sequential Cooling Fraction Schedule Name 1
  {336e2d12-4e91-4153-9903-e30e6b6deaf5}; !- Zone Equipment Sequential Heating Fraction Schedule Name 1

OS:AdditionalProperties,
  {5aec78bc-d744-41f9-b194-19ad4daab3c0}, !- Handle
  {2092eeb1-2b75-4f71-84ce-5d8fa51109bf}, !- Object Name
  ObjectType,                             !- Feature Name 1
  String,                                 !- Feature Data Type 1
  conditioned space;                      !- Feature Value 1

OS:Space,
  {c90766fe-0de5-4b0d-a0fa-9eba944e32c2}, !- Handle
  conditioned space 1,                    !- Name
  ,                                       !- Space Type Name
  ,                                       !- Default Construction Set Name
  ,                                       !- Default Schedule Set Name
  ,                                       !- Direction of Relative North {deg}
  ,                                       !- X Origin {m}
  ,                                       !- Y Origin {m}
  ,                                       !- Z Origin {m}
  ,                                       !- Building Story Name
  {2092eeb1-2b75-4f71-84ce-5d8fa51109bf}, !- Thermal Zone Name
  ,                                       !- Part of Total Floor Area
  ,                                       !- Design Specification Outdoor Air Object Name
  ,                                       !- Building Unit Name
  951.587629724161;                       !- Volume {m3}

OS:Schedule:Ruleset,
  {6cd06d20-b556-430e-9340-1ec2f8a345b3}, !- Handle
  heating setpoint,                       !- Name
  {c6859b9c-e741-4a23-a776-3574398d306f}, !- Schedule Type Limits Name
  {9bfe1fda-3bd3-494c-a773-bace0bb60d12}; !- Default Day Schedule Name

OS:Schedule:Day,
  {9bfe1fda-3bd3-494c-a773-bace0bb60d12}, !- Handle
  heating setpoint default day,           !- Name
  {c6859b9c-e741-4a23-a776-3574398d306f}, !- Schedule Type Limits Name
  ,                                       !- Interpolate to Timestep
  24,                                     !- Hour 1
  0,                                      !- Minute 1
  0;                                      !- Value Until Time 1

OS:Schedule:Rule,
  {bc258086-d77a-4ece-9693-7dc00c37310c}, !- Handle
  heating setpoint allday rule,           !- Name
  {6cd06d20-b556-430e-9340-1ec2f8a345b3}, !- Schedule Ruleset Name
  0,                                      !- Rule Order
  {c32d8e41-4c93-4976-af36-be0fbdece796}, !- Day Schedule Name
  Yes,                                    !- Apply Sunday
  Yes,                                    !- Apply Monday
  Yes,                                    !- Apply Tuesday
  Yes,                                    !- Apply Wednesday
  Yes,                                    !- Apply Thursday
  Yes,                                    !- Apply Friday
  Yes,                                    !- Apply Saturday
  DateRange,                              !- Date Specification Type
  1,                                      !- Start Month
  1,                                      !- Start Day
  12,                                     !- End Month
  31;                                     !- End Day

OS:Schedule:Day,
  {c32d8e41-4c93-4976-af36-be0fbdece796}, !- Handle
  heating setpoint day,                   !- Name
  {c6859b9c-e741-4a23-a776-3574398d306f}, !- Schedule Type Limits Name
  ,                                       !- Interpolate to Timestep
  24,                                     !- Hour 1
  0,                                      !- Minute 1
  20;                                     !- Value Until Time 1

OS:Schedule:Ruleset,
  {b60af446-0447-4c2e-94fc-07f83f776332}, !- Handle
  cooling setpoint,                       !- Name
  {c6859b9c-e741-4a23-a776-3574398d306f}, !- Schedule Type Limits Name
  {107912e8-093f-4144-9ac2-be3ffed3f7e2}; !- Default Day Schedule Name

OS:Schedule:Day,
  {107912e8-093f-4144-9ac2-be3ffed3f7e2}, !- Handle
  cooling setpoint default day,           !- Name
  {c6859b9c-e741-4a23-a776-3574398d306f}, !- Schedule Type Limits Name
  ,                                       !- Interpolate to Timestep
  24,                                     !- Hour 1
  0,                                      !- Minute 1
  0;                                      !- Value Until Time 1

OS:Schedule:Rule,
  {f6082b28-1072-433d-9fc3-8bec168c9297}, !- Handle
  cooling setpoint allday rule,           !- Name
  {b60af446-0447-4c2e-94fc-07f83f776332}, !- Schedule Ruleset Name
  0,                                      !- Rule Order
  {01c2720f-4486-4023-a685-265dfeadf61b}, !- Day Schedule Name
  Yes,                                    !- Apply Sunday
  Yes,                                    !- Apply Monday
  Yes,                                    !- Apply Tuesday
  Yes,                                    !- Apply Wednesday
  Yes,                                    !- Apply Thursday
  Yes,                                    !- Apply Friday
  Yes,                                    !- Apply Saturday
  DateRange,                              !- Date Specification Type
  1,                                      !- Start Month
  1,                                      !- Start Day
  12,                                     !- End Month
  31;                                     !- End Day

OS:Schedule:Day,
  {01c2720f-4486-4023-a685-265dfeadf61b}, !- Handle
  cooling setpoint day,                   !- Name
  {c6859b9c-e741-4a23-a776-3574398d306f}, !- Schedule Type Limits Name
  ,                                       !- Interpolate to Timestep
  24,                                     !- Hour 1
  0,                                      !- Minute 1
  25.5555555555556;                       !- Value Until Time 1

OS:ThermostatSetpoint:DualSetpoint,
  {b7249979-a441-49fe-9e6f-a6ba4e87b723}, !- Handle
  conditioned space temperature setpoint, !- Name
  {6cd06d20-b556-430e-9340-1ec2f8a345b3}, !- Heating Setpoint Temperature Schedule Name
  {b60af446-0447-4c2e-94fc-07f83f776332}, !- Cooling Setpoint Temperature Schedule Name
  0;                                      !- Temperature Difference Between Cutout And Setpoint {deltaC}

OS:ScheduleTypeLimits,
  {c6859b9c-e741-4a23-a776-3574398d306f}, !- Handle
  Temperature,                            !- Name
  ,                                       !- Lower Limit Value
  ,                                       !- Upper Limit Value
  Continuous,                             !- Numeric Type
  Temperature;                            !- Unit Type

OS:Surface,
  {1e783124-f360-4c88-b735-35860790b0ad}, !- Handle
  Roof1,                                  !- Name
  RoofCeiling,                            !- Surface Type
  {ea91bac9-c9f6-4558-9968-052e9ae6bc76}, !- Construction Name
  {c90766fe-0de5-4b0d-a0fa-9eba944e32c2}, !- Space Name
  Outdoors,                               !- Outside Boundary Condition
  ,                                       !- Outside Boundary Condition Object
  SunExposed,                             !- Sun Exposure
  WindExposed,                            !- Wind Exposure
  ,                                       !- View Factor to Ground
  ,                                       !- Number of Vertices
  -8.42346109387347, 8.42346109387347, 2.4384, !- X,Y,Z Vertex 1 {m}
  -8.42346109387347, -8.42346109387347, 2.4384, !- X,Y,Z Vertex 2 {m}
  8.42346109387347, -8.42346109387347, 2.4384, !- X,Y,Z Vertex 3 {m}
  8.42346109387347, 8.42346109387347, 2.4384; !- X,Y,Z Vertex 4 {m}

OS:AdditionalProperties,
  {6fb80e80-79d0-41be-b073-d4fd97e6634e}, !- Handle
  {1e783124-f360-4c88-b735-35860790b0ad}, !- Object Name
  Length,                                 !- Feature Name 1
  Double,                                 !- Feature Data Type 1
  55.27205442174192,                      !- Feature Value 1
  Width,                                  !- Feature Name 2
  Double,                                 !- Feature Data Type 2
  55.272054421741913,                     !- Feature Value 2
  Azimuth,                                !- Feature Name 3
  Integer,                                !- Feature Data Type 3
  0,                                      !- Feature Value 3
  Tilt,                                   !- Feature Name 4
  Double,                                 !- Feature Data Type 4
  0,                                      !- Feature Value 4
  SurfaceType,                            !- Feature Name 5
  String,                                 !- Feature Data Type 5
  Roof;                                   !- Feature Value 5

OS:Material,
  {31f9629b-73bc-4126-b987-61bfe8b27a9f}, !- Handle
  asphalt or fiberglass shingles,         !- Name
  Rough,                                  !- Roughness
  0.00635,                                !- Thickness {m}
  0.162714,                               !- Conductivity {W/m-K}
  1121.4,                                 !- Density {kg/m3}
  1465.45,                                !- Specific Heat {J/kg-K}
  0.9,                                    !- Thermal Absorptance
  0.85,                                   !- Solar Absorptance
  0.85;                                   !- Visible Absorptance

OS:Material,
  {0dead80c-46a3-4c1e-bada-6257716487c0}, !- Handle
  roof stud and cavity,                   !- Name
  Rough,                                  !- Roughness
  0.0889,                                 !- Thickness {m}
  0.491900632004487,                      !- Conductivity {W/m-K}
  50.32683,                               !- Density {kg/m3}
  1063.80987585548,                       !- Specific Heat {J/kg-K}
  0.9,                                    !- Thermal Absorptance
  0.7,                                    !- Solar Absorptance
  0.7;                                    !- Visible Absorptance

OS:Material,
  {a962756b-7fa4-473d-8a57-45f3b91c16c4}, !- Handle
  gypsum board,                           !- Name
  Rough,                                  !- Roughness
  0.00254,                                !- Thickness {m}
  0.1602906,                              !- Conductivity {W/m-K}
  801,                                    !- Density {kg/m3}
  837.4,                                  !- Specific Heat {J/kg-K}
  0.9,                                    !- Thermal Absorptance
  0.6,                                    !- Solar Absorptance
  0.6;                                    !- Visible Absorptance

OS:Construction,
  {ea91bac9-c9f6-4558-9968-052e9ae6bc76}, !- Handle
  Roof1 construction,                     !- Name
  ,                                       !- Surface Rendering Name
  {31f9629b-73bc-4126-b987-61bfe8b27a9f}, !- Layer 1
  {0dead80c-46a3-4c1e-bada-6257716487c0}, !- Layer 2
  {a962756b-7fa4-473d-8a57-45f3b91c16c4}; !- Layer 3

OS:Surface,
  {1f8eb031-96c3-4642-9189-79e47cc97c9f}, !- Handle
  Wall1,                                  !- Name
  Wall,                                   !- Surface Type
  {a1c496d2-0267-4e2a-bd23-10ceeb885192}, !- Construction Name
  {c90766fe-0de5-4b0d-a0fa-9eba944e32c2}, !- Space Name
  Outdoors,                               !- Outside Boundary Condition
  ,                                       !- Outside Boundary Condition Object
  SunExposed,                             !- Sun Exposure
  WindExposed,                            !- Wind Exposure
  ,                                       !- View Factor to Ground
  ,                                       !- Number of Vertices
  -50.3642317384615, 51.2932621384616, 0, !- X,Y,Z Vertex 1 {m}
  -50.3642317384615, 51.2932621384616, 2.4384, !- X,Y,Z Vertex 2 {m}
  -30.8303617384615, 51.2932621384616, 2.4384, !- X,Y,Z Vertex 3 {m}
  -30.8303617384615, 51.2932621384616, 0; !- X,Y,Z Vertex 4 {m}

OS:AdditionalProperties,
  {146f3f0c-d0ec-4a07-98e9-bf7f6de79850}, !- Handle
  {1f8eb031-96c3-4642-9189-79e47cc97c9f}, !- Object Name
  Length,                                 !- Feature Name 1
  Double,                                 !- Feature Data Type 1
  64.087499999999991,                     !- Feature Value 1
  Azimuth,                                !- Feature Name 2
  Integer,                                !- Feature Data Type 2
  0,                                      !- Feature Value 2
  Tilt,                                   !- Feature Name 3
  Double,                                 !- Feature Data Type 3
  90,                                     !- Feature Value 3
  SurfaceType,                            !- Feature Name 4
  String,                                 !- Feature Data Type 4
  Wall;                                   !- Feature Value 4

OS:Material,
  {13ba36bf-687f-4a74-88a1-18aca0189149}, !- Handle
  wood siding,                            !- Name
  Rough,                                  !- Roughness
  0.0254,                                 !- Thickness {m}
  0.1024175,                              !- Conductivity {W/m-K}
  544.68,                                 !- Density {kg/m3}
  1172.36,                                !- Specific Heat {J/kg-K}
  0.9,                                    !- Thermal Absorptance
  0.7,                                    !- Solar Absorptance
  0.7;                                    !- Visible Absorptance

OS:Material,
  {fdb374c9-4416-4aa0-8810-e7c54c30f1eb}, !- Handle
  osb sheathing 0.5 in.,                  !- Name
  Rough,                                  !- Roughness
  0.0127,                                 !- Thickness {m}
  0.1154577,                              !- Conductivity {W/m-K}
  512.64,                                 !- Density {kg/m3}
  1214.23,                                !- Specific Heat {J/kg-K}
  0.9,                                    !- Thermal Absorptance
  0.7,                                    !- Solar Absorptance
  0.7;                                    !- Visible Absorptance

OS:Material,
  {1996950e-d38d-44b5-a7ec-3176226efc5c}, !- Handle
  wall stud and cavity,                   !- Name
  Rough,                                  !- Roughness
  0.1397,                                 !- Thickness {m}
  0.0929021674204099,                     !- Conductivity {W/m-K}
  139.0536,                               !- Density {kg/m3}
  1170.23755760369,                       !- Specific Heat {J/kg-K}
  0.9,                                    !- Thermal Absorptance
  0.7,                                    !- Solar Absorptance
  0.7;                                    !- Visible Absorptance

OS:Material,
  {ebf6c7b7-f355-48b2-b630-d327d5ed5ba7}, !- Handle
  gypsum board 1,                         !- Name
  Rough,                                  !- Roughness
  0.0127,                                 !- Thickness {m}
  0.1602906,                              !- Conductivity {W/m-K}
  801,                                    !- Density {kg/m3}
  837.4,                                  !- Specific Heat {J/kg-K}
  0.9,                                    !- Thermal Absorptance
  0.6,                                    !- Solar Absorptance
  0.6;                                    !- Visible Absorptance

OS:Construction,
  {a1c496d2-0267-4e2a-bd23-10ceeb885192}, !- Handle
  Wall1 construction,                     !- Name
  ,                                       !- Surface Rendering Name
  {13ba36bf-687f-4a74-88a1-18aca0189149}, !- Layer 1
  {fdb374c9-4416-4aa0-8810-e7c54c30f1eb}, !- Layer 2
  {1996950e-d38d-44b5-a7ec-3176226efc5c}, !- Layer 3
  {ebf6c7b7-f355-48b2-b630-d327d5ed5ba7}; !- Layer 4

OS:Surface,
  {83fdaa06-1f25-42cf-a0cf-604084d4685d}, !- Handle
  Wall2,                                  !- Name
  Wall,                                   !- Surface Type
  {053ee6ed-86d5-438f-9b51-6687feab4c7e}, !- Construction Name
  {c90766fe-0de5-4b0d-a0fa-9eba944e32c2}, !- Space Name
  Outdoors,                               !- Outside Boundary Condition
  ,                                       !- Outside Boundary Condition Object
  SunExposed,                             !- Sun Exposure
  WindExposed,                            !- Wind Exposure
  ,                                       !- View Factor to Ground
  ,                                       !- Number of Vertices
  51.2932621384616, -36.1953302, 0,       !- X,Y,Z Vertex 1 {m}
  51.2932621384616, -36.1953302, 2.4384,  !- X,Y,Z Vertex 2 {m}
  51.2932621384616, -45.9641702, 2.4384,  !- X,Y,Z Vertex 3 {m}
  51.2932621384616, -45.9641702, 0;       !- X,Y,Z Vertex 4 {m}

OS:AdditionalProperties,
  {e2868f21-4d75-45db-bd54-26f1c7d42462}, !- Handle
  {83fdaa06-1f25-42cf-a0cf-604084d4685d}, !- Object Name
  Length,                                 !- Feature Name 1
  Double,                                 !- Feature Data Type 1
  32.049999999999997,                     !- Feature Value 1
  Azimuth,                                !- Feature Name 2