
OS:Version,
  {690df895-03c5-44bc-9a75-fa48a41baefd}, !- Handle
  3.10.0;                                 !- Version Identifier

OS:SimulationControl,
  {e4e50254-6a28-48b2-af76-0305755ae670}, !- Handle
  ,                                       !- Do Zone Sizing Calculation
  ,                                       !- Do System Sizing Calculation
  ,                                       !- Do Plant Sizing Calculation
  No;                                     !- Run Simulation for Sizing Periods

OS:Timestep,
  {6590a607-2bf7-471f-a145-7f0852f5bde0}, !- Handle
  1;                                      !- Number of Timesteps per Hour

OS:ShadowCalculation,
  {7cb06555-6af3-4c19-ad17-0c8490cb989e}, !- Handle
  PolygonClipping,                        !- Shading Calculation Method
  ,                                       !- Shading Calculation Update Frequency Method
  20,                                     !- Shading Calculation Update Frequency
  200,                                    !- Maximum Figures in Shadow Overlap Calculations
  ,                                       !- Polygon Clipping Algorithm
  512,                                    !- Pixel Counting Resolution
  ,                                       !- Sky Diffuse Modeling Algorithm
  No,                                     !- Output External Shading Calculation Results
  No,                                     !- Disable Self-Shading Within Shading Zone Groups
  No;                                     !- Disable Self-Shading From Shading Zone Groups to Other Zones

OS:SurfaceConvectionAlgorithm:Outside,
  {834eabf1-31e1-4338-b705-da60fa60dcb1}, !- Handle
  DOE-2;                                  !- Algorithm

OS:SurfaceConvectionAlgorithm:Inside,
  {a89f15a0-0d0b-4d94-8db4-22f0e41dfbb5}, !- Handle
  TARP;                                   !- Algorithm

OS:ZoneCapacitanceMultiplier:ResearchSpecial,
  {71a090e6-e193-44d4-9d71-65826c7189db}, !- Handle
  7,                                      !- Temperature Capacity Multiplier
  15,                                     !- Humidity Capacity Multiplier
  ;                                       !- Carbon Dioxide Capacity Multiplier

OS:ConvergenceLimits,
  {75d7d5b4-ec91-4401-a3b8-9b9d27d62acf}, !- Handle
  0;                                      !- Minimum System Timestep {minutes}

OS:RunPeriod,
  {96c55fc2-5cbd-4a9c-854e-89ebb798d8f7}, !- Handle
  Run Period 1,                           !- Name
  1,                                      !- Begin Month
  1,                                      !- Begin Day of Month
  12,                                     !- End Month
  31,                                     !- End Day of Month
  ,                                       !- Use Weather File Holidays and Special Days
  ,                                       !- Use Weather File Daylight Saving Period
  ,                                       !- Apply Weekend Holiday Rule
  ,                                       !- Use Weather File Rain Indicators
  ,                                       !- Use Weather File Snow Indicators
  ;                                       !- Number of Times Runperiod to be Repeated

OS:PerformancePrecisionTradeoffs,
  {daeb726d-7f7d-4041-9ad1-daa3267b2568}, !- Handle
  ,                                       !- Use Coil Direct Solutions
  CarrollMRT;                             !- Zone Radiant Exchange Algorithm

OS:WeatherFile,
  {c93773d4-ce45-4430-b973-a211265236b9}, !- Handle
  Buffalo Niagara Intl Ap,                !- City
  NY,                                     !- State Province Region
  USA,                                    !- Country
  TMY3,                                   !- Data Source
  725280,                                 !- WMO Number
  42.93,                                  !- Latitude {deg}
  -78.73,                                 !- Longitude {deg}
  -5,                                     !- Time Zone {hr}
  215,                                    !- Elevation {m}
  /Users/nmoore/github/urbanopt-example-geojson-project/example_project/weather/USA_NY_Buffalo-Greater.Buffalo.Intl.AP.725280_TMY3.epw, !- Url
  6B50E0FF,                               !- Checksum
  ,                                       !- Start Date Actual Year
  Sunday;                                 !- Start Day of Week

OS:YearDescription,
  {a7451036-cdf3-4210-834b-1239911b5b4f}, !- Handle
  2007,                                   !- Calendar Year
  ,                                       !- Day of Week for Start Day
  ;                                       !- Is Leap Year

OS:Site,
  {ab1b0f6a-f942-433b-acf1-498b1d61dcec}, !- Handle
  Buffalo Niagara Intl Ap_NY,             !- Name
  42.93,                                  !- Latitude {deg}
  -78.73,                                 !- Longitude {deg}
  -5,                                     !- Time Zone {hr}
  215,                                    !- Elevation {m}
  Suburbs,                                !- Terrain
  Yes;                                    !- Keep Site Location Information

OS:RunPeriodControl:DaylightSavingTime,
  {df3df856-c131-4b06-859e-9f638573b4be}, !- Handle
  Mar 12,                                 !- Start Date
  Nov 5;                                  !- End Date

OS:Site:GroundTemperature:Shallow,
  {0ffa511f-3e39-4667-b458-448b4f01e8f2}, !- Handle
  4.30207395723828,                       !- January Surface Ground Temperature {C}
  2.29327249652502,                       !- February Surface Ground Temperature {C}
  2.13240047156047,                       !- March Surface Ground Temperature {C}
  3.08567940719286,                       !- April Surface Ground Temperature {C}
  6.91256312497526,                       !- May Surface Ground Temperature {C}
  10.7216195949507,                       !- June Surface Ground Temperature {C}
  14.0238679822574,                       !- July Surface Ground Temperature {C}
  16.1157611184724,                       !- August Surface Ground Temperature {C}
  16.2934789303462,                       !- September Surface Ground Temperature {C}
  14.5920754632847,                       !- October Surface Ground Temperature {C}
  11.374036348653,                        !- November Surface Ground Temperature {C}
  7.68182621661674;                       !- December Surface Ground Temperature {C}

OS:ThermalZone,
  {f4463b43-97e0-476b-81d4-6d0ed4e8ec6a}, !- Handle
  conditioned space,                      !- Name
  1,                                      !- Multiplier
  ,                                       !- Ceiling Height {m}
  692.06373070848,                        !- Volume {m3}
  ,                                       !- Floor Area {m2}
  ,                                       !- Zone Inside Convection Algorithm
  ,                                       !- Zone Outside Convection Algorithm
  ,                                       !- Zone Conditioning Equipment List Name
  {350701ad-b58f-4839-b933-8f888775b964}, !- Zone Air Inlet Port List
  {1312e17b-7e83-434c-86be-43def5b52977}, !- Zone Air Exhaust Port List
  {b01f26a0-bdeb-4ca9-9fc1-83321ea6696d}, !- Zone Air Node Name
  {a044af06-0a20-42c0-a896-9bfbde313671}, !- Zone Return Air Port List
  ,                                       !- Primary Daylighting Control Name
  ,                                       !- Fraction of Zone Controlled by Primary Daylighting Control
  ,                                       !- Secondary Daylighting Control Name
  ,                                       !- Fraction of Zone Controlled by Secondary Daylighting Control
  ,                                       !- Illuminance Map Name
  ,                                       !- Group Rendering Name
  {126a75f9-abae-46ed-9bb5-178a78d543f9}, !- Thermostat Name
  No;                                     !- Use Ideal Air Loads

OS:Node,
  {2dcc63a2-d3ae-40a5-9f20-ffa3334d940b}, !- Handle
  Node 1,                                 !- Name
  {b01f26a0-bdeb-4ca9-9fc1-83321ea6696d}, !- Inlet Port
  ;                                       !- Outlet Port

OS:Connection,
  {b01f26a0-bdeb-4ca9-9fc1-83321ea6696d}, !- Handle
  {f4463b43-97e0-476b-81d4-6d0ed4e8ec6a}, !- Source Object
  11,                                     !- Outlet Port
  {2dcc63a2-d3ae-40a5-9f20-ffa3334d940b}, !- Target Object
  2;                                      !- Inlet Port

OS:PortList,
  {350701ad-b58f-4839-b933-8f888775b964}, !- Handle
  {f4463b43-97e0-476b-81d4-6d0ed4e8ec6a}, !- HVAC Component
  {ee67318a-926e-4740-9f4f-06d7bf5b450e}; !- Port 1

OS:PortList,
  {1312e17b-7e83-434c-86be-43def5b52977}, !- Handle
  {f4463b43-97e0-476b-81d4-6d0ed4e8ec6a}; !- HVAC Component

OS:PortList,
  {a044af06-0a20-42c0-a896-9bfbde313671}, !- Handle
  {f4463b43-97e0-476b-81d4-6d0ed4e8ec6a}, !- HVAC Component
  {95738da5-bac7-4cf3-8af5-6b554337179a}; !- Port 1

OS:Sizing:Zone,
  {f276ee83-e587-4451-95e5-85d6868c57f3}, !- Handle
  {f4463b43-97e0-476b-81d4-6d0ed4e8ec6a}, !- Zone or ZoneList Name
  SupplyAirTemperature,                   !- Zone Cooling Design Supply Air Temperature Input Method
  14,                                     !- Zone Cooling Design Supply Air Temperature {C}
  11.11,                                  !- Zone Cooling Design Supply Air Temperature Difference {deltaC}
  SupplyAirTemperature,                   !- Zone Heating Design Supply Air Temperature Input Method
  40,                                     !- Zone Heating Design Supply Air Temperature {C}
  11.11,                                  !- Zone Heating Design Supply Air Temperature Difference {deltaC}
  0.0085,                                 !- Zone Cooling Design Supply Air Humidity Ratio {kg-H2O/kg-air}
  0.008,                                  !- Zone Heating Design Supply Air Humidity Ratio {kg-H2O/kg-air}
  ,                                       !- Zone Heating Sizing Factor
  ,                                       !- Zone Cooling Sizing Factor
  DesignDay,                              !- Cooling Design Air Flow Method
  ,                                       !- Cooling Design Air Flow Rate {m3/s}
  ,                                       !- Cooling Minimum Air Flow per Zone Floor Area {m3/s-m2}
  ,                                       !- Cooling Minimum Air Flow {m3/s}
  ,                                       !- Cooling Minimum Air Flow Fraction
  DesignDay,                              !- Heating Design Air Flow Method
  ,                                       !- Heating Design Air Flow Rate {m3/s}
  ,                                       !- Heating Maximum Air Flow per Zone Floor Area {m3/s-m2}
  ,                                       !- Heating Maximum Air Flow {m3/s}
  ,                                       !- Heating Maximum Air Flow Fraction
  No,                                     !- Account for Dedicated Outdoor Air System
  NeutralSupplyAir,                       !- Dedicated Outdoor Air System Control Strategy
  autosize,                               !- Dedicated Outdoor Air Low Setpoint Temperature for Design {C}
  autosize,                               !- Dedicated Outdoor Air High Setpoint Temperature for Design {C}
  Sensible Load Only No Latent Load,      !- Zone Load Sizing Method
  HumidityRatioDifference,                !- Zone Latent Cooling Design Supply Air Humidity Ratio Input Method
  ,                                       !- Zone Dehumidification Design Supply Air Humidity Ratio {kgWater/kgDryAir}
  0.005,                                  !- Zone Cooling Design Supply Air Humidity Ratio Difference {kgWater/kgDryAir}
  HumidityRatioDifference,                !- Zone Latent Heating Design Supply Air Humidity Ratio Input Method
  ,                                       !- Zone Humidification Design Supply Air Humidity Ratio {kgWater/kgDryAir}
  0.005,                                  !- Zone Humidification Design Supply Air Humidity Ratio Difference {kgWater/kgDryAir}
  ,                                       !- Zone Humidistat Dehumidification Set Point Schedule Name
  ,                                       !- Zone Humidistat Humidification Set Point Schedule Name
  ,                                       !- Design Zone Air Distribution Effectiveness in Cooling Mode
  ,                                       !- Design Zone Air Distribution Effectiveness in Heating Mode
  ,                                       !- Design Zone Secondary Recirculation Fraction {dimensionless}
  ,                                       !- Design Minimum Zone Ventilation Efficiency {dimensionless}
  Coincident;                             !- Sizing Option

OS:ZoneHVAC:EquipmentList,
  {48e11c0b-88a0-4fa6-9cd1-1a894ca85741}, !- Handle
  Zone HVAC Equipment List 1,             !- Name
  {f4463b43-97e0-476b-81d4-6d0ed4e8ec6a}, !- Thermal Zone
  ,                                       !- Load Distribution Scheme
  {572f7f5f-1da1-4db8-8eee-07c1ef22386d}, !- Zone Equipment 1
  1,                                      !- Zone Equipment Cooling Sequence 1
  1,                                      !- Zone Equipment Heating or No-Load Sequence 1
  {3ab5135e-bdd5-4e01-8a39-547ab905129c}, !- Zone Equipment Sequential Cooling Fraction Schedule Name 1
  {8d3166b8-aeaa-4367-9769-9eaa6e1620a3}; !- Zone Equipment Sequential Heating Fraction Schedule Name 1

OS:AdditionalProperties,
  {41e02667-7947-421d-b8a5-07de0e7ca06b}, !- Handle
  {f4463b43-97e0-476b-81d4-6d0ed4e8ec6a}, !- Object Name
  ObjectType,                             !- Feature Name 1
  String,                                 !- Feature Data Type 1
  conditioned space;                      !- Feature Value 1

OS:Space,
  {74b4d704-2380-4058-bb65-5b10bc6e94d6}, !- Handle
  conditioned space 1,                    !- Name
  ,                                       !- Space Type Name
  ,                                       !- Default Construction Set Name
  ,                                       !- Default Schedule Set Name
  ,                                       !- Direction of Relative North {deg}
  ,                                       !- X Origin {m}
  ,                                       !- Y Origin {m}
  ,                                       !- Z Origin {m}
  ,                                       !- Building Story Name
  {f4463b43-97e0-476b-81d4-6d0ed4e8ec6a}, !- Thermal Zone Name
  ,                                       !- Part of Total Floor Area
  ,                                       !- Design Specification Outdoor Air Object Name
  ,                                       !- Building Unit Name
  692.06373070848;                        !- Volume {m3}

OS:Schedule:Ruleset,
  {d688025c-aee3-47cb-8757-357ab97062fd}, !- Handle
  heating setpoint,                       !- Name
  {65861273-9120-4449-90fd-1e97ca258e5d}, !- Schedule Type Limits Name
  {c5a4bc95-6e5d-4677-8e0e-520605aabd3b}; !- Default Day Schedule Name

OS:Schedule:Day,
  {c5a4bc95-6e5d-4677-8e0e-520605aabd3b}, !- Handle
  heating setpoint default day,           !- Name
  {65861273-9120-4449-90fd-1e97ca258e5d}, !- Schedule Type Limits Name
  ,                                       !- Interpolate to Timestep
  24,                                     !- Hour 1
  0,                                      !- Minute 1
  0;                                      !- Value Until Time 1

OS:Schedule:Rule,
  {e1c2a68e-9f08-4b68-a24a-4622a231c655}, !- Handle
  heating setpoint allday rule,           !- Name
  {d688025c-aee3-47cb-8757-357ab97062fd}, !- Schedule Ruleset Name
  0,                                      !- Rule Order
  {aeb5a362-4207-4197-a3ad-b2fb2167fb2e}, !- Day Schedule Name
  Yes,                                    !- Apply Sunday
  Yes,                                    !- Apply Monday
  Yes,                                    !- Apply Tuesday
  Yes,                                    !- Apply Wednesday
  Yes,                                    !- Apply Thursday
  Yes,                                    !- Apply Friday
  Yes,                                    !- Apply Saturday
  DateRange,                              !- Date Specification Type
  1,                                      !- Start Month
  1,                                      !- Start Day
  12,                                     !- End Month
  31;                                     !- End Day

OS:Schedule:Day,
  {aeb5a362-4207-4197-a3ad-b2fb2167fb2e}, !- Handle
  heating setpoint day,                   !- Name
  {65861273-9120-4449-90fd-1e97ca258e5d}, !- Schedule Type Limits Name
  ,                                       !- Interpolate to Timestep
  24,                                     !- Hour 1
  0,                                      !- Minute 1
  20;                                     !- Value Until Time 1

OS:Schedule:Ruleset,
  {082aacb9-c949-43b6-90f8-959bc3e76b09}, !- Handle
  cooling setpoint,                       !- Name
  {65861273-9120-4449-90fd-1e97ca258e5d}, !- Schedule Type Limits Name
  {3b406a4b-e415-47e1-bc6c-b0cec35552fc}; !- Default Day Schedule Name

OS:Schedule:Day,
  {3b406a4b-e415-47e1-bc6c-b0cec35552fc}, !- Handle
  cooling setpoint default day,           !- Name
  {65861273-9120-4449-90fd-1e97ca258e5d}, !- Schedule Type Limits Name
  ,                                       !- Interpolate to Timestep
  24,                                     !- Hour 1
  0,                                      !- Minute 1
  0;                                      !- Value Until Time 1

OS:Schedule:Rule,
  {2833d300-363d-413f-be0b-9e4b3d46e831}, !- Handle
  cooling setpoint allday rule,           !- Name
  {082aacb9-c949-43b6-90f8-959bc3e76b09}, !- Schedule Ruleset Name
  0,                                      !- Rule Order
  {d4425312-5318-48e8-9f27-4ec1a05eedfc}, !- Day Schedule Name
  Yes,                                    !- Apply Sunday
  Yes,                                    !- Apply Monday
  Yes,                                    !- Apply Tuesday
  Yes,                                    !- Apply Wednesday
  Yes,                                    !- Apply Thursday
  Yes,                                    !- Apply Friday
  Yes,                                    !- Apply Saturday
  DateRange,                              !- Date Specification Type
  1,                                      !- Start Month
  1,                                      !- Start Day
  12,                                     !- End Month
  31;                                     !- End Day

OS:Schedule:Day,
  {d4425312-5318-48e8-9f27-4ec1a05eedfc}, !- Handle
  cooling setpoint day,                   !- Name
  {65861273-9120-4449-90fd-1e97ca258e5d}, !- Schedule Type Limits Name
  ,                                       !- Interpolate to Timestep
  24,                                     !- Hour 1
  0,                                      !- Minute 1
  25.5555555555556;                       !- Value Until Time 1

OS:ThermostatSetpoint:DualSetpoint,
  {126a75f9-abae-46ed-9bb5-178a78d543f9}, !- Handle
  conditioned space temperature setpoint, !- Name
  {d688025c-aee3-47cb-8757-357ab97062fd}, !- Heating Setpoint Temperature Schedule Name
  {082aacb9-c949-43b6-90f8-959bc3e76b09}, !- Cooling Setpoint Temperature Schedule Name
  0;                                      !- Temperature Difference Between Cutout And Setpoint {deltaC}

OS:ScheduleTypeLimits,
  {65861273-9120-4449-90fd-1e97ca258e5d}, !- Handle
  Temperature,                            !- Name
  ,                                       !- Lower Limit Value
  ,                                       !- Upper Limit Value
  Continuous,                             !- Numeric Type
  Temperature;                            !- Unit Type

OS:Surface,
  {60b049ba-02d6-4290-931c-65ace12498a4}, !- Handle
  Roof1,                                  !- Name
  RoofCeiling,                            !- Surface Type
  {ef68f552-7d4e-4b6e-ba60-97e7a767f077}, !- Construction Name
  {a2336821-b341-40b3-9893-3001a1fd424b}, !- Space Name
  Outdoors,                               !- Outside Boundary Condition
  ,                                       !- Outside Boundary Condition Object
  SunExposed,                             !- Sun Exposure
  WindExposed,                            !- Wind Exposure
  ,                                       !- View Factor to Ground
  ,                                       !- Number of Vertices
  -26.9347048849634, 58.0557891618865, 2.4384, !- X,Y,Z Vertex 1 {m}
  -26.9347048849634, 46.7895631136661, 8.0715130241102, !- X,Y,Z Vertex 2 {m}
  -14.3386812381136, 46.7895631136661, 8.0715130241102, !- X,Y,Z Vertex 3 {m}
  -14.3386812381136, 58.0557891618865, 2.4384; !- X,Y,Z Vertex 4 {m}

OS:AdditionalProperties,
  {2f8d9441-f665-46bd-8319-11d5a2faf6c9}, !- Handle
  {60b049ba-02d6-4290-931c-65ace12498a4}, !- Object Name
  Length,                                 !- Feature Name 1
  Double,                                 !- Feature Data Type 1
  41.325536899113608,                     !- Feature Value 1
  Width,                                  !- Feature Name 2
  Double,                                 !- Feature Data Type 2
  41.325536899113601,                     !- Feature Value 2
  Azimuth,                                !- Feature Name 3
  Integer,                                !- Feature Data Type 3
  0,                                      !- Feature Value 3
  Tilt,                                   !- Feature Name 4
  Double,                                 !- Feature Data Type 4
  0.5,                                    !- Feature Value 4
  SurfaceType,                            !- Feature Name 5
  String,                                 !- Feature Data Type 5
  Roof;                                   !- Feature Value 5

OS:ThermalZone,
  {81158bb9-01ec-4f2d-8ead-a6ca964aa782}, !- Handle
  attic - vented,                         !- Name
  1,                                      !- Multiplier
  ,                                       !- Ceiling Height {m}
  356.390921899745,                       !- Volume {m3}
  ,                                       !- Floor Area {m2}
  ,                                       !- Zone Inside Convection Algorithm
  ,                                       !- Zone Outside Convection Algorithm
  ,                                       !- Zone Conditioning Equipment List Name
  {1a807d6b-cc7f-4926-869b-4df277c8a155}, !- Zone Air Inlet Port List
  {ec1c6528-fb99-498b-ae93-37b842c4fc4a}, !- Zone Air Exhaust Port List
  {632f817e-099c-4404-acc5-b94a530414c7}, !- Zone Air Node Name
  {34f8ae2e-6e9d-4eeb-b437-8c32adde19eb}, !- Zone Return Air Port List
  ,                                       !- Primary Daylighting Control Name
  ,                                       !- Fraction of Zone Controlled by Primary Daylighting Control
  ,                                       !- Secondary Daylighting Control Name
  ,                                       !- Fraction of Zone Controlled by Secondary Daylighting Control
  ,                                       !- Illuminance Map Name
  ,                                       !- Group Rendering Name
  ,                                       !- Thermostat Name
  No;                                     !- Use Ideal Air Loads

OS:Node,
  {e75e22a1-610a-4ac4-8a38-1693ae6d92cf}, !- Handle
  Node 2,                                 !- Name
  {632f817e-099c-4404-acc5-b94a530414c7}, !- Inlet Port
  ;                                       !- Outlet Port

OS:Connection,
  {632f817e-099c-4404-acc5-b94a530414c7}, !- Handle
  {81158bb9-01ec-4f2d-8ead-a6ca964aa782}, !- Source Object
  11,                                     !- Outlet Port
  {e75e22a1-610a-4ac4-8a38-1693ae6d92cf}, !- Target Object
  2;                                      !- Inlet Port

OS:PortList,
  {1a807d6b-cc7f-4926-869b-4df277c8a155}, !- Handle
  {81158bb9-01ec-4f2d-8ead-a6ca964aa782}; !- HVAC Component

OS:PortList,
  {ec1c6528-fb99-498b-ae93-37b842c4fc4a}, !- Handle
  {81158bb9-01ec-4f2d-8ead-a6ca964aa782}; !- HVAC Component

OS:PortList,
  {34f8ae2e-6e9d-4eeb-b437-8c32adde19eb}, !- Handle
  {81158bb9-01ec-4f2d-8ead-a6ca964aa782}; !- HVAC Component

OS:Sizing:Zone,
  {fe1d7d19-d25b-4cdf-8816-76436952caa8}, !- Handle
  {81158bb9-01ec-4f2d-8ead-a6ca964aa782}, !- Zone or ZoneList Name
  SupplyAirTemperature,                   !- Zone Cooling Design Supply Air Temperature Input Method
  14,                                     !- Zone Cooling Design Supply Air Temperature {C}
  11.11,                                  !- Zone Cooling Design Supply Air Temperature Difference {deltaC}
  SupplyAirTemperature,                   !- Zone Heating Design Supply Air Temperature Input Method
  40,                                     !- Zone Heating Design Supply Air Temperature {C}
  11.11,                                  !- Zone Heating Design Supply Air Temperature Difference {deltaC}
  0.0085,                                 !- Zone Cooling Design Supply Air Humidity Ratio {kg-H2O/kg-air}
  0.008,                                  !- Zone Heating Design Supply Air Humidity Ratio {kg-H2O/kg-air}
  ,                                       !- Zone Heating Sizing Factor
  ,                                       !- Zone Cooling Sizing Factor
  DesignDay,                              !- Cooling Design Air Flow Method
  ,                                       !- Cooling Design Air Flow Rate {m3/s}
  ,                                       !- Cooling Minimum Air Flow per Zone Floor Area {m3/s-m2}
  ,                                       !- Cooling Minimum Air Flow {m3/s}
  ,                                       !- Cooling Minimum Air Flow Fraction
  DesignDay,                              !- Heating Design Air Flow Method
  ,                                       !- Heating Design Air Flow Rate {m3/s}
  ,                                       !- Heating Maximum Air Flow per Zone Floor Area {m3/s-m2}
  ,                                       !- Heating Maximum Air Flow {m3/s}
  ,                                       !- Heating Maximum Air Flow Fraction
  No,                                     !- Account for Dedicated Outdoor Air System
  NeutralSupplyAir,                       !- Dedicated Outdoor Air System Control Strategy
  autosize,                               !- Dedicated Outdoor Air Low Setpoint Temperature for Design {C}
  autosize,                               !- Dedicated Outdoor Air High Setpoint Temperature for Design {C}
  Sensible Load Only No Latent Load,      !- Zone Load Sizing Method
  HumidityRatioDifference,                !- Zone Latent Cooling Design Supply Air Humidity Ratio Input Method
  ,                                       !- Zone Dehumidification Design Supply Air Humidity Ratio {kgWater/kgDryAir}
  0.005,                                  !- Zone Cooling Design Supply Air Humidity Ratio Difference {kgWater/kgDryAir}
  HumidityRatioDifference,                !- Zone Latent Heating Design Supply Air Humidity Ratio Input Method
  ,                                       !- Zone Humidification Design Supply Air Humidity Ratio {kgWater/kgDryAir}
  0.005,                                  !- Zone Humidification Design Supply Air Humidity Ratio Difference {kgWater/kgDryAir}
  ,                                       !- Zone Humidistat Dehumidification Set Point Schedule Name
  ,                                       !- Zone Humidistat Humidification Set Point Schedule Name
  ,                                       !- Design Zone Air Distribution Effectiveness in Cooling Mode
  ,                                       !- Design Zone Air Distribution Effectiveness in Heating Mode
  ,                                       !- Design Zone Secondary Recirculation Fraction {dimensionless}
  ,                                       !- Design Minimum Zone Ventilation Efficiency {dimensionless}
  Coincident;                             !- Sizing Option

OS:ZoneHVAC:EquipmentList,
  {e9a113af-5660-4468-bb15-5e5fee8dbca6}, !- Handle
  Zone HVAC Equipment List 2,             !- Name
  {81158bb9-01ec-4f2d-8ead-a6ca964aa782}; !- Thermal Zone

OS:AdditionalProperties,
  {3693b614-95c2-4a30-8092-d603f3ac1162}, !- Handle
  {81158bb9-01ec-4f2d-8ead-a6ca964aa782}, !- Object Name
  ObjectType,                             !- Feature Name 1
  String,                                 !- Feature Data Type 1
  attic - vented;                         !- Feature Value 1

OS:Space,
  {a2336821-b341-40b3-9893-3001a1fd424b}, !- Handle
  attic - vented 1,                       !- Name
  ,                                       !- Space Type Name
  ,                                       !- Default Construction Set Name
  ,                                       !- Default Schedule Set Name
  ,                                       !- Direction of Relative North {deg}
  ,                                       !- X Origin {m}
  ,                                       !- Y Origin {m}
  ,                                       !- Z Origin {m}
  ,                                       !- Building Story Name
  {81158bb9-01ec-4f2d-8ead-a6ca964aa782}, !- Thermal Zone Name
  ,                                       !- Part of Total Floor Area
  ,                                       !- Design Specification Outdoor Air Object Name
  ,                                       !- Building Unit Name
  356.390921899745;                       !- Volume {m3}

OS:Material,
  {9de8756e-7768-44eb-b4a0-36991166b672}, !- Handle
  asphalt or fiberglass shingles,         !- Name
  Rough,                                  !- Roughness
  0.00635,                                !- Thickness {m}
  0.162714,                               !- Conductivity {W/m-K}
  1121.4,                                 !- Density {kg/m3}
  1465.45,                                !- Specific Heat {J/kg-K}
  0.9,                                    !- Thermal Absorptance
  0.85,                                   !- Solar Absorptance