
OS:Version,
  {0b9f0426-555d-42ca-bfa3-5c9017adeb33}, !- Handle
  3.9.0;                                  !- Version Identifier

OS:SimulationControl,
  {2a8b0056-a61c-4919-9f48-0008ade6288c}, !- Handle
  ,                                       !- Do Zone Sizing Calculation
  ,                                       !- Do System Sizing Calculation
  ,                                       !- Do Plant Sizing Calculation
  No;                                     !- Run Simulation for Sizing Periods

OS:Timestep,
  {16a9eea6-9486-48c0-988b-f2e504ba8d44}, !- Handle
  1;                                      !- Number of Timesteps per Hour

OS:ShadowCalculation,
  {86595108-47eb-4036-b126-305b164ec0aa}, !- Handle
  PolygonClipping,                        !- Shading Calculation Method
  ,                                       !- Shading Calculation Update Frequency Method
  20,                                     !- Shading Calculation Update Frequency
  200,                                    !- Maximum Figures in Shadow Overlap Calculations
  ,                                       !- Polygon Clipping Algorithm
  512,                                    !- Pixel Counting Resolution
  ,                                       !- Sky Diffuse Modeling Algorithm
  No,                                     !- Output External Shading Calculation Results
  No,                                     !- Disable Self-Shading Within Shading Zone Groups
  No;                                     !- Disable Self-Shading From Shading Zone Groups to Other Zones

OS:SurfaceConvectionAlgorithm:Outside,
  {1a703242-0610-441a-9ba6-890c222b7a76}, !- Handle
  DOE-2;                                  !- Algorithm

OS:SurfaceConvectionAlgorithm:Inside,
  {2e1db1a3-f970-4253-ac8e-07db4198933a}, !- Handle
  TARP;                                   !- Algorithm

OS:ZoneCapacitanceMultiplier:ResearchSpecial,
  {1d8cb20b-9ba5-4cf9-8c1c-af334073f958}, !- Handle
  7,                                      !- Temperature Capacity Multiplier
  15,                                     !- Humidity Capacity Multiplier
  ;                                       !- Carbon Dioxide Capacity Multiplier

OS:ConvergenceLimits,
  {a836719b-a57d-451a-898d-eb6b9fc93569}, !- Handle
  0;                                      !- Minimum System Timestep {minutes}

OS:RunPeriod,
  {0c39a6c9-a990-44a2-8ec9-eefd83d538c3}, !- Handle
  Run Period 1,                           !- Name
  1,                                      !- Begin Month
  1,                                      !- Begin Day of Month
  12,                                     !- End Month
  31,                                     !- End Day of Month
  ,                                       !- Use Weather File Holidays and Special Days
  ,                                       !- Use Weather File Daylight Saving Period
  ,                                       !- Apply Weekend Holiday Rule
  ,                                       !- Use Weather File Rain Indicators
  ,                                       !- Use Weather File Snow Indicators
  ;                                       !- Number of Times Runperiod to be Repeated

OS:PerformancePrecisionTradeoffs,
  {69d75ce4-7d9e-4721-a0eb-725fdba43d9b}, !- Handle
  ,                                       !- Use Coil Direct Solutions
  CarrollMRT;                             !- Zone Radiant Exchange Algorithm

OS:WeatherFile,
  {b48bcd23-61c1-45cb-89bb-f2eea5b7c031}, !- Handle
  Buffalo Niagara Intl Ap,                !- City
  NY,                                     !- State Province Region
  USA,                                    !- Country
  TMY3,                                   !- Data Source
  725280,                                 !- WMO Number
  42.93,                                  !- Latitude {deg}
  -78.73,                                 !- Longitude {deg}
  -5,                                     !- Time Zone {hr}
  215,                                    !- Elevation {m}
  /Users/nmoore/github/urbanopt-example-geojson-project/example_project/weather/USA_NY_Buffalo-Greater.Buffalo.Intl.AP.725280_TMY3.epw, !- Url
  6B50E0FF,                               !- Checksum
  ,                                       !- Start Date Actual Year
  Sunday;                                 !- Start Day of Week

OS:YearDescription,
  {b63cb8f4-0463-4fc5-a9ac-611036815e51}, !- Handle
  2007,                                   !- Calendar Year
  ,                                       !- Day of Week for Start Day
  ;                                       !- Is Leap Year

OS:Site,
  {6abc5016-5c18-4eda-9ada-87458a56b11d}, !- Handle
  Buffalo Niagara Intl Ap_NY,             !- Name
  42.93,                                  !- Latitude {deg}
  -78.73,                                 !- Longitude {deg}
  -5,                                     !- Time Zone {hr}
  215,                                    !- Elevation {m}
  Suburbs,                                !- Terrain
  Yes;                                    !- Keep Site Location Information

OS:RunPeriodControl:DaylightSavingTime,
  {8287a878-954d-4db6-863d-3174041d7094}, !- Handle
  Mar 12,                                 !- Start Date
  Nov 5;                                  !- End Date

OS:Site:GroundTemperature:Shallow,
  {eb7f11e9-7c81-4a67-b7ce-096013860c29}, !- Handle
  4.30207395723828,                       !- January Surface Ground Temperature {C}
  2.29327249652502,                       !- February Surface Ground Temperature {C}
  2.13240047156047,                       !- March Surface Ground Temperature {C}
  3.08567940719286,                       !- April Surface Ground Temperature {C}
  6.91256312497526,                       !- May Surface Ground Temperature {C}
  10.7216195949507,                       !- June Surface Ground Temperature {C}
  14.0238679822574,                       !- July Surface Ground Temperature {C}
  16.1157611184724,                       !- August Surface Ground Temperature {C}
  16.2934789303462,                       !- September Surface Ground Temperature {C}
  14.5920754632847,                       !- October Surface Ground Temperature {C}
  11.374036348653,                        !- November Surface Ground Temperature {C}
  7.68182621661674;                       !- December Surface Ground Temperature {C}

OS:ThermalZone,
  {44f9441c-838e-46f4-a037-505a0f889306}, !- Handle
  conditioned space,                      !- Name
  1,                                      !- Multiplier
  ,                                       !- Ceiling Height {m}
  692.06373070848,                        !- Volume {m3}
  ,                                       !- Floor Area {m2}
  ,                                       !- Zone Inside Convection Algorithm
  ,                                       !- Zone Outside Convection Algorithm
  ,                                       !- Zone Conditioning Equipment List Name
  {0bc62723-05e3-4a19-9e07-a675eeb62211}, !- Zone Air Inlet Port List
  {2b041c02-6a80-4f20-ac40-6f1dc1638368}, !- Zone Air Exhaust Port List
  {f75ca3b5-12c1-4d20-83bf-e4b4776627dd}, !- Zone Air Node Name
  {7717b437-6795-41ab-a3b7-fc5d8849043c}, !- Zone Return Air Port List
  ,                                       !- Primary Daylighting Control Name
  ,                                       !- Fraction of Zone Controlled by Primary Daylighting Control
  ,                                       !- Secondary Daylighting Control Name
  ,                                       !- Fraction of Zone Controlled by Secondary Daylighting Control
  ,                                       !- Illuminance Map Name
  ,                                       !- Group Rendering Name
  {adde2289-7f60-41af-85f5-3fb7eee115f4}, !- Thermostat Name
  No;                                     !- Use Ideal Air Loads

OS:Node,
  {f840925a-2ffe-43c3-91b7-82aef1bc2061}, !- Handle
  Node 1,                                 !- Name
  {f75ca3b5-12c1-4d20-83bf-e4b4776627dd}, !- Inlet Port
  ;                                       !- Outlet Port

OS:Connection,
  {f75ca3b5-12c1-4d20-83bf-e4b4776627dd}, !- Handle
  {44f9441c-838e-46f4-a037-505a0f889306}, !- Source Object
  11,                                     !- Outlet Port
  {f840925a-2ffe-43c3-91b7-82aef1bc2061}, !- Target Object
  2;                                      !- Inlet Port

OS:PortList,
  {0bc62723-05e3-4a19-9e07-a675eeb62211}, !- Handle
  {44f9441c-838e-46f4-a037-505a0f889306}, !- HVAC Component
  {36442b5b-56d0-4cc4-823a-68d988a10f3e}; !- Port 1

OS:PortList,
  {2b041c02-6a80-4f20-ac40-6f1dc1638368}, !- Handle
  {44f9441c-838e-46f4-a037-505a0f889306}; !- HVAC Component

OS:PortList,
  {7717b437-6795-41ab-a3b7-fc5d8849043c}, !- Handle
  {44f9441c-838e-46f4-a037-505a0f889306}, !- HVAC Component
  {1f2450be-981f-4711-b2c3-1602ce0b69f5}; !- Port 1

OS:Sizing:Zone,
  {14b2e5a5-10e0-4deb-a47a-095b6589c65d}, !- Handle
  {44f9441c-838e-46f4-a037-505a0f889306}, !- Zone or ZoneList Name
  SupplyAirTemperature,                   !- Zone Cooling Design Supply Air Temperature Input Method
  14,                                     !- Zone Cooling Design Supply Air Temperature {C}
  11.11,                                  !- Zone Cooling Design Supply Air Temperature Difference {deltaC}
  SupplyAirTemperature,                   !- Zone Heating Design Supply Air Temperature Input Method
  40,                                     !- Zone Heating Design Supply Air Temperature {C}
  11.11,                                  !- Zone Heating Design Supply Air Temperature Difference {deltaC}
  0.0085,                                 !- Zone Cooling Design Supply Air Humidity Ratio {kg-H2O/kg-air}
  0.008,                                  !- Zone Heating Design Supply Air Humidity Ratio {kg-H2O/kg-air}
  ,                                       !- Zone Heating Sizing Factor
  ,                                       !- Zone Cooling Sizing Factor
  DesignDay,                              !- Cooling Design Air Flow Method
  ,                                       !- Cooling Design Air Flow Rate {m3/s}
  ,                                       !- Cooling Minimum Air Flow per Zone Floor Area {m3/s-m2}
  ,                                       !- Cooling Minimum Air Flow {m3/s}
  ,                                       !- Cooling Minimum Air Flow Fraction
  DesignDay,                              !- Heating Design Air Flow Method
  ,                                       !- Heating Design Air Flow Rate {m3/s}
  ,                                       !- Heating Maximum Air Flow per Zone Floor Area {m3/s-m2}
  ,                                       !- Heating Maximum Air Flow {m3/s}
  ,                                       !- Heating Maximum Air Flow Fraction
  No,                                     !- Account for Dedicated Outdoor Air System
  NeutralSupplyAir,                       !- Dedicated Outdoor Air System Control Strategy
  autosize,                               !- Dedicated Outdoor Air Low Setpoint Temperature for Design {C}
  autosize,                               !- Dedicated Outdoor Air High Setpoint Temperature for Design {C}
  Sensible Load Only No Latent Load,      !- Zone Load Sizing Method
  HumidityRatioDifference,                !- Zone Latent Cooling Design Supply Air Humidity Ratio Input Method
  ,                                       !- Zone Dehumidification Design Supply Air Humidity Ratio {kgWater/kgDryAir}
  0.005,                                  !- Zone Cooling Design Supply Air Humidity Ratio Difference {kgWater/kgDryAir}
  HumidityRatioDifference,                !- Zone Latent Heating Design Supply Air Humidity Ratio Input Method
  ,                                       !- Zone Humidification Design Supply Air Humidity Ratio {kgWater/kgDryAir}
  0.005,                                  !- Zone Humidification Design Supply Air Humidity Ratio Difference {kgWater/kgDryAir}
  ,                                       !- Zone Humidistat Dehumidification Set Point Schedule Name
  ,                                       !- Zone Humidistat Humidification Set Point Schedule Name
  ,                                       !- Design Zone Air Distribution Effectiveness in Cooling Mode
  ,                                       !- Design Zone Air Distribution Effectiveness in Heating Mode
  ,                                       !- Design Zone Secondary Recirculation Fraction {dimensionless}
  ,                                       !- Design Minimum Zone Ventilation Efficiency {dimensionless}
  Coincident;                             !- Sizing Option

OS:ZoneHVAC:EquipmentList,
  {91f27e0c-4aaf-43bf-9278-5ab162e6129b}, !- Handle
  Zone HVAC Equipment List 1,             !- Name
  {44f9441c-838e-46f4-a037-505a0f889306}, !- Thermal Zone
  ,                                       !- Load Distribution Scheme
  {24e1d28f-53df-4296-ae8a-2c0cca7d5273}, !- Zone Equipment 1
  1,                                      !- Zone Equipment Cooling Sequence 1
  1,                                      !- Zone Equipment Heating or No-Load Sequence 1
  {57c35629-a153-4a54-8d4d-fad8d7e76788}, !- Zone Equipment Sequential Cooling Fraction Schedule Name 1
  {1aee433a-f3ed-43c5-8cef-ab55cf0c57d1}; !- Zone Equipment Sequential Heating Fraction Schedule Name 1

OS:AdditionalProperties,
  {44c6817a-f242-49ee-a91e-90cedb3fb1a4}, !- Handle
  {44f9441c-838e-46f4-a037-505a0f889306}, !- Object Name
  ObjectType,                             !- Feature Name 1
  String,                                 !- Feature Data Type 1
  conditioned space;                      !- Feature Value 1

OS:Space,
  {df546bd0-647f-4e29-b2a2-5dcf0aab1422}, !- Handle
  conditioned space 1,                    !- Name
  ,                                       !- Space Type Name
  ,                                       !- Default Construction Set Name
  ,                                       !- Default Schedule Set Name
  ,                                       !- Direction of Relative North {deg}
  ,                                       !- X Origin {m}
  ,                                       !- Y Origin {m}
  ,                                       !- Z Origin {m}
  ,                                       !- Building Story Name
  {44f9441c-838e-46f4-a037-505a0f889306}, !- Thermal Zone Name
  ,                                       !- Part of Total Floor Area
  ,                                       !- Design Specification Outdoor Air Object Name
  ,                                       !- Building Unit Name
  692.06373070848;                        !- Volume {m3}

OS:Schedule:Ruleset,
  {9897871a-d2da-4d2b-a096-ff0065f61e66}, !- Handle
  heating setpoint,                       !- Name
  {cd8efa30-7633-4868-8b2e-50734e68641e}, !- Schedule Type Limits Name
  {10523f36-cf8c-4f4a-91bb-c9f58249acb4}; !- Default Day Schedule Name

OS:Schedule:Day,
  {10523f36-cf8c-4f4a-91bb-c9f58249acb4}, !- Handle
  heating setpoint default day,           !- Name
  {cd8efa30-7633-4868-8b2e-50734e68641e}, !- Schedule Type Limits Name
  ,                                       !- Interpolate to Timestep
  24,                                     !- Hour 1
  0,                                      !- Minute 1
  0;                                      !- Value Until Time 1

OS:Schedule:Rule,
  {76b0be13-2e23-4fa5-ba6d-73a94980b4de}, !- Handle
  heating setpoint allday rule,           !- Name
  {9897871a-d2da-4d2b-a096-ff0065f61e66}, !- Schedule Ruleset Name
  0,                                      !- Rule Order
  {1183e1c4-8b35-4478-8e3f-af0fa40a4bc7}, !- Day Schedule Name
  Yes,                                    !- Apply Sunday
  Yes,                                    !- Apply Monday
  Yes,                                    !- Apply Tuesday
  Yes,                                    !- Apply Wednesday
  Yes,                                    !- Apply Thursday
  Yes,                                    !- Apply Friday
  Yes,                                    !- Apply Saturday
  DateRange,                              !- Date Specification Type
  1,                                      !- Start Month
  1,                                      !- Start Day
  12,                                     !- End Month
  31;                                     !- End Day

OS:Schedule:Day,
  {1183e1c4-8b35-4478-8e3f-af0fa40a4bc7}, !- Handle
  heating setpoint day,                   !- Name
  {cd8efa30-7633-4868-8b2e-50734e68641e}, !- Schedule Type Limits Name
  ,                                       !- Interpolate to Timestep
  24,                                     !- Hour 1
  0,                                      !- Minute 1
  20;                                     !- Value Until Time 1

OS:Schedule:Ruleset,
  {9d81edc8-e322-4cda-b028-67b6ff1474f2}, !- Handle
  cooling setpoint,                       !- Name
  {cd8efa30-7633-4868-8b2e-50734e68641e}, !- Schedule Type Limits Name
  {f2f1d052-11bb-4c41-b09b-66b1a0f305cd}; !- Default Day Schedule Name

OS:Schedule:Day,
  {f2f1d052-11bb-4c41-b09b-66b1a0f305cd}, !- Handle
  cooling setpoint default day,           !- Name
  {cd8efa30-7633-4868-8b2e-50734e68641e}, !- Schedule Type Limits Name
  ,                                       !- Interpolate to Timestep
  24,                                     !- Hour 1
  0,                                      !- Minute 1
  0;                                      !- Value Until Time 1

OS:Schedule:Rule,
  {1ab81f25-eab1-4fdf-ab65-ef615a52cc8a}, !- Handle
  cooling setpoint allday rule,           !- Name
  {9d81edc8-e322-4cda-b028-67b6ff1474f2}, !- Schedule Ruleset Name
  0,                                      !- Rule Order
  {6ae50ff5-557a-4bf0-b8d7-ee675aeeead7}, !- Day Schedule Name
  Yes,                                    !- Apply Sunday
  Yes,                                    !- Apply Monday
  Yes,                                    !- Apply Tuesday
  Yes,                                    !- Apply Wednesday
  Yes,                                    !- Apply Thursday
  Yes,                                    !- Apply Friday
  Yes,                                    !- Apply Saturday
  DateRange,                              !- Date Specification Type
  1,                                      !- Start Month
  1,                                      !- Start Day
  12,                                     !- End Month
  31;                                     !- End Day

OS:Schedule:Day,
  {6ae50ff5-557a-4bf0-b8d7-ee675aeeead7}, !- Handle
  cooling setpoint day,                   !- Name
  {cd8efa30-7633-4868-8b2e-50734e68641e}, !- Schedule Type Limits Name
  ,                                       !- Interpolate to Timestep
  24,                                     !- Hour 1
  0,                                      !- Minute 1
  25.5555555555556;                       !- Value Until Time 1

OS:ThermostatSetpoint:DualSetpoint,
  {adde2289-7f60-41af-85f5-3fb7eee115f4}, !- Handle
  conditioned space temperature setpoint, !- Name
  {9897871a-d2da-4d2b-a096-ff0065f61e66}, !- Heating Setpoint Temperature Schedule Name
  {9d81edc8-e322-4cda-b028-67b6ff1474f2}, !- Cooling Setpoint Temperature Schedule Name
  0;                                      !- Temperature Difference Between Cutout And Setpoint {deltaC}

OS:ScheduleTypeLimits,
  {cd8efa30-7633-4868-8b2e-50734e68641e}, !- Handle
  Temperature,                            !- Name
  ,                                       !- Lower Limit Value
  ,                                       !- Upper Limit Value
  Continuous,                             !- Numeric Type
  Temperature;                            !- Unit Type

OS:Surface,
  {4660767d-56df-43c7-9923-588c570874d2}, !- Handle
  Roof1,                                  !- Name
  RoofCeiling,                            !- Surface Type
  {b1359ae5-7f45-4718-8aa1-a42458b52b5d}, !- Construction Name
  {95f761d1-b7b0-4094-b08c-c08d447cc86e}, !- Space Name
  Outdoors,                               !- Outside Boundary Condition
  ,                                       !- Outside Boundary Condition Object
  SunExposed,                             !- Sun Exposure
  WindExposed,                            !- Wind Exposure
  ,                                       !- View Factor to Ground
  ,                                       !- Number of Vertices
  -26.9347048849634, 58.0557891618865, 2.4384, !- X,Y,Z Vertex 1 {m}
  -26.9347048849634, 46.7895631136661, 8.0715130241102, !- X,Y,Z Vertex 2 {m}
  -14.3386812381136, 46.7895631136661, 8.0715130241102, !- X,Y,Z Vertex 3 {m}
  -14.3386812381136, 58.0557891618865, 2.4384; !- X,Y,Z Vertex 4 {m}

OS:AdditionalProperties,
  {6466b2bd-f2a4-479f-99a7-2a14ff59b6f5}, !- Handle
  {4660767d-56df-43c7-9923-588c570874d2}, !- Object Name
  Length,                                 !- Feature Name 1
  Double,                                 !- Feature Data Type 1
  41.325536899113608,                     !- Feature Value 1
  Width,                                  !- Feature Name 2
  Double,                                 !- Feature Data Type 2
  41.325536899113601,                     !- Feature Value 2
  Azimuth,                                !- Feature Name 3
  Integer,                                !- Feature Data Type 3
  0,                                      !- Feature Value 3
  Tilt,                                   !- Feature Name 4
  Double,                                 !- Feature Data Type 4
  0.5,                                    !- Feature Value 4
  SurfaceType,                            !- Feature Name 5
  String,                                 !- Feature Data Type 5
  Roof;                                   !- Feature Value 5

OS:ThermalZone,
  {574ca2dd-846d-4843-aff3-3621c245eb72}, !- Handle
  attic - vented,                         !- Name
  1,                                      !- Multiplier
  ,                                       !- Ceiling Height {m}
  356.389957095237,                       !- Volume {m3}
  ,                                       !- Floor Area {m2}
  ,                                       !- Zone Inside Convection Algorithm
  ,                                       !- Zone Outside Convection Algorithm
  ,                                       !- Zone Conditioning Equipment List Name
  {6b08545e-7201-4286-a14d-da1072369781}, !- Zone Air Inlet Port List
  {0aaa8f21-c8b3-4d98-b12b-6db4c291286b}, !- Zone Air Exhaust Port List
  {9194e6a3-6463-47ba-b70c-e2663f20f7cb}, !- Zone Air Node Name
  {8015962c-0878-42c1-a32e-aed2c021adbd}, !- Zone Return Air Port List
  ,                                       !- Primary Daylighting Control Name
  ,                                       !- Fraction of Zone Controlled by Primary Daylighting Control
  ,                                       !- Secondary Daylighting Control Name
  ,                                       !- Fraction of Zone Controlled by Secondary Daylighting Control
  ,                                       !- Illuminance Map Name
  ,                                       !- Group Rendering Name
  ,                                       !- Thermostat Name
  No;                                     !- Use Ideal Air Loads

OS:Node,
  {9b73bf2f-1cad-4275-bc35-f23d4858f0a5}, !- Handle
  Node 2,                                 !- Name
  {9194e6a3-6463-47ba-b70c-e2663f20f7cb}, !- Inlet Port
  ;                                       !- Outlet Port

OS:Connection,
  {9194e6a3-6463-47ba-b70c-e2663f20f7cb}, !- Handle
  {574ca2dd-846d-4843-aff3-3621c245eb72}, !- Source Object
  11,                                     !- Outlet Port
  {9b73bf2f-1cad-4275-bc35-f23d4858f0a5}, !- Target Object
  2;                                      !- Inlet Port

OS:PortList,
  {6b08545e-7201-4286-a14d-da1072369781}, !- Handle
  {574ca2dd-846d-4843-aff3-3621c245eb72}; !- HVAC Component

OS:PortList,
  {0aaa8f21-c8b3-4d98-b12b-6db4c291286b}, !- Handle
  {574ca2dd-846d-4843-aff3-3621c245eb72}; !- HVAC Component

OS:PortList,
  {8015962c-0878-42c1-a32e-aed2c021adbd}, !- Handle
  {574ca2dd-846d-4843-aff3-3621c245eb72}; !- HVAC Component

OS:Sizing:Zone,
  {38bb840d-2e35-4a1b-83ab-cb8b7d0e3df9}, !- Handle
  {574ca2dd-846d-4843-aff3-3621c245eb72}, !- Zone or ZoneList Name
  SupplyAirTemperature,                   !- Zone Cooling Design Supply Air Temperature Input Method
  14,                                     !- Zone Cooling Design Supply Air Temperature {C}
  11.11,                                  !- Zone Cooling Design Supply Air Temperature Difference {deltaC}
  SupplyAirTemperature,                   !- Zone Heating Design Supply Air Temperature Input Method
  40,                                     !- Zone Heating Design Supply Air Temperature {C}
  11.11,                                  !- Zone Heating Design Supply Air Temperature Difference {deltaC}
  0.0085,                                 !- Zone Cooling Design Supply Air Humidity Ratio {kg-H2O/kg-air}
  0.008,                                  !- Zone Heating Design Supply Air Humidity Ratio {kg-H2O/kg-air}
  ,                                       !- Zone Heating Sizing Factor
  ,                                       !- Zone Cooling Sizing Factor
  DesignDay,                              !- Cooling Design Air Flow Method
  ,                                       !- Cooling Design Air Flow Rate {m3/s}
  ,                                       !- Cooling Minimum Air Flow per Zone Floor Area {m3/s-m2}
  ,                                       !- Cooling Minimum Air Flow {m3/s}
  ,                                       !- Cooling Minimum Air Flow Fraction
  DesignDay,                              !- Heating Design Air Flow Method
  ,                                       !- Heating Design Air Flow Rate {m3/s}
  ,                                       !- Heating Maximum Air Flow per Zone Floor Area {m3/s-m2}
  ,                                       !- Heating Maximum Air Flow {m3/s}
  ,                                       !- Heating Maximum Air Flow Fraction
  No,                                     !- Account for Dedicated Outdoor Air System
  NeutralSupplyAir,                       !- Dedicated Outdoor Air System Control Strategy
  autosize,                               !- Dedicated Outdoor Air Low Setpoint Temperature for Design {C}
  autosize,                               !- Dedicated Outdoor Air High Setpoint Temperature for Design {C}
  Sensible Load Only No Latent Load,      !- Zone Load Sizing Method
  HumidityRatioDifference,                !- Zone Latent Cooling Design Supply Air Humidity Ratio Input Method
  ,                                       !- Zone Dehumidification Design Supply Air Humidity Ratio {kgWater/kgDryAir}
  0.005,                                  !- Zone Cooling Design Supply Air Humidity Ratio Difference {kgWater/kgDryAir}
  HumidityRatioDifference,                !- Zone Latent Heating Design Supply Air Humidity Ratio Input Method
  ,                                       !- Zone Humidification Design Supply Air Humidity Ratio {kgWater/kgDryAir}
  0.005,                                  !- Zone Humidification Design Supply Air Humidity Ratio Difference {kgWater/kgDryAir}
  ,                                       !- Zone Humidistat Dehumidification Set Point Schedule Name
  ,                                       !- Zone Humidistat Humidification Set Point Schedule Name
  ,                                       !- Design Zone Air Distribution Effectiveness in Cooling Mode
  ,                                       !- Design Zone Air Distribution Effectiveness in Heating Mode
  ,                                       !- Design Zone Secondary Recirculation Fraction {dimensionless}
  ,                                       !- Design Minimum Zone Ventilation Efficiency {dimensionless}
  Coincident;                             !- Sizing Option

OS:ZoneHVAC:EquipmentList,
  {bc5243a7-0d46-4fe6-842d-6d5f769798aa}, !- Handle
  Zone HVAC Equipment List 2,             !- Name
  {574ca2dd-846d-4843-aff3-3621c245eb72}; !- Thermal Zone

OS:AdditionalProperties,
  {f1f50205-4f61-4b3e-9a0e-6e6912f1c8b1}, !- Handle
  {574ca2dd-846d-4843-aff3-3621c245eb72}, !- Object Name
  ObjectType,                             !- Feature Name 1
  String,                                 !- Feature Data Type 1
  attic - vented;                         !- Feature Value 1

OS:Space,
  {95f761d1-b7b0-4094-b08c-c08d447cc86e}, !- Handle
  attic - vented 1,                       !- Name
  ,                                       !- Space Type Name
  ,                                       !- Default Construction Set Name
  ,                                       !- Default Schedule Set Name
  ,                                       !- Direction of Relative North {deg}
  ,                                       !- X Origin {m}
  ,                                       !- Y Origin {m}
  ,                                       !- Z Origin {m}
  ,                                       !- Building Story Name
  {574ca2dd-846d-4843-aff3-3621c245eb72}, !- Thermal Zone Name
  ,                                       !- Part of Total Floor Area
  ,                                       !- Design Specification Outdoor Air Object Name
  ,                                       !- Building Unit Name
  356.389957095237;                       !- Volume {m3}

OS:Material,
  {75665381-3722-47e8-92b3-4be6e16263e3}, !- Handle
  asphalt or fiberglass shingles,         !- Name
  Rough,                                  !- Roughness
  0.00635,                                !- Thickness {m}
  0.162714,                               !- Conductivity {W/m-K}
  1121.4,                                 !- Density {kg/m3}
  1465.45,                                !- Specific Heat {J/kg-K}
  0.9,                                    !- Thermal Absorptance
  0.85,                                   !- Solar Absorptance