
OS:Version,
  {3c2cc211-d502-41c5-b19c-b680b71e900a}, !- Handle
  3.9.0;                                  !- Version Identifier

OS:SimulationControl,
  {fb1e22fa-0bc7-4e13-8f06-31b3bef0d0e2}, !- Handle
  ,                                       !- Do Zone Sizing Calculation
  ,                                       !- Do System Sizing Calculation
  ,                                       !- Do Plant Sizing Calculation
  No;                                     !- Run Simulation for Sizing Periods

OS:Timestep,
  {06a6b29d-6a9e-47ed-ba47-fc23f7b1f3cf}, !- Handle
  1;                                      !- Number of Timesteps per Hour

OS:ShadowCalculation,
  {001697f3-0d93-4a1c-bddb-a0f5a5404af3}, !- Handle
  PolygonClipping,                        !- Shading Calculation Method
  ,                                       !- Shading Calculation Update Frequency Method
  20,                                     !- Shading Calculation Update Frequency
  200,                                    !- Maximum Figures in Shadow Overlap Calculations
  ,                                       !- Polygon Clipping Algorithm
  512,                                    !- Pixel Counting Resolution
  ,                                       !- Sky Diffuse Modeling Algorithm
  No,                                     !- Output External Shading Calculation Results
  No,                                     !- Disable Self-Shading Within Shading Zone Groups
  No;                                     !- Disable Self-Shading From Shading Zone Groups to Other Zones

OS:SurfaceConvectionAlgorithm:Outside,
  {67b0eb31-bda9-4fb1-8cb2-ec18da033704}, !- Handle
  DOE-2;                                  !- Algorithm

OS:SurfaceConvectionAlgorithm:Inside,
  {6cc52207-dfc1-403f-84fe-bb79f7d82c67}, !- Handle
  TARP;                                   !- Algorithm

OS:ZoneCapacitanceMultiplier:ResearchSpecial,
  {658fbe5a-b475-4ebc-9ace-78391faf307d}, !- Handle
  7,                                      !- Temperature Capacity Multiplier
  15,                                     !- Humidity Capacity Multiplier
  ;                                       !- Carbon Dioxide Capacity Multiplier

OS:ConvergenceLimits,
  {bc3803b4-5cf1-4ac6-8f71-6edf079d2903}, !- Handle
  0;                                      !- Minimum System Timestep {minutes}

OS:RunPeriod,
  {a4edde90-45e3-464b-8762-3293fd763e85}, !- Handle
  Run Period 1,                           !- Name
  1,                                      !- Begin Month
  1,                                      !- Begin Day of Month
  12,                                     !- End Month
  31,                                     !- End Day of Month
  ,                                       !- Use Weather File Holidays and Special Days
  ,                                       !- Use Weather File Daylight Saving Period
  ,                                       !- Apply Weekend Holiday Rule
  ,                                       !- Use Weather File Rain Indicators
  ,                                       !- Use Weather File Snow Indicators
  ;                                       !- Number of Times Runperiod to be Repeated

OS:PerformancePrecisionTradeoffs,
  {0475a532-7d2d-4b53-ad6c-8c08e45cea9f}, !- Handle
  ,                                       !- Use Coil Direct Solutions
  CarrollMRT;                             !- Zone Radiant Exchange Algorithm

OS:WeatherFile,
  {3f8eed97-8c71-4d9e-8994-82aa04226a47}, !- Handle
  Buffalo Niagara Intl Ap,                !- City
  NY,                                     !- State Province Region
  USA,                                    !- Country
  TMY3,                                   !- Data Source
  725280,                                 !- WMO Number
  42.93,                                  !- Latitude {deg}
  -78.73,                                 !- Longitude {deg}
  -5,                                     !- Time Zone {hr}
  215,                                    !- Elevation {m}
  /Users/nmoore/github/urbanopt-example-geojson-project/example_project/weather/USA_NY_Buffalo-Greater.Buffalo.Intl.AP.725280_TMY3.epw, !- Url
  6B50E0FF,                               !- Checksum
  ,                                       !- Start Date Actual Year
  Sunday;                                 !- Start Day of Week

OS:YearDescription,
  {0354e256-ee32-4e63-a281-940e45f07ef0}, !- Handle
  2007,                                   !- Calendar Year
  ,                                       !- Day of Week for Start Day
  ;                                       !- Is Leap Year

OS:Site,
  {27c54d8e-52d5-4c5f-ba1b-73fe16783e79}, !- Handle
  Buffalo Niagara Intl Ap_NY,             !- Name
  42.93,                                  !- Latitude {deg}
  -78.73,                                 !- Longitude {deg}
  -5,                                     !- Time Zone {hr}
  215,                                    !- Elevation {m}
  Suburbs,                                !- Terrain
  Yes;                                    !- Keep Site Location Information

OS:RunPeriodControl:DaylightSavingTime,
  {c8ab2a0d-fb5d-45f1-b750-9a43614d0312}, !- Handle
  Mar 12,                                 !- Start Date
  Nov 5;                                  !- End Date

OS:Site:GroundTemperature:Shallow,
  {5d317716-9cd5-4196-8f2a-6cf11644a50b}, !- Handle
  4.30207395723828,                       !- January Surface Ground Temperature {C}
  2.29327249652502,                       !- February Surface Ground Temperature {C}
  2.13240047156047,                       !- March Surface Ground Temperature {C}
  3.08567940719286,                       !- April Surface Ground Temperature {C}
  6.91256312497526,                       !- May Surface Ground Temperature {C}
  10.7216195949507,                       !- June Surface Ground Temperature {C}
  14.0238679822574,                       !- July Surface Ground Temperature {C}
  16.1157611184724,                       !- August Surface Ground Temperature {C}
  16.2934789303462,                       !- September Surface Ground Temperature {C}
  14.5920754632847,                       !- October Surface Ground Temperature {C}
  11.374036348653,                        !- November Surface Ground Temperature {C}
  7.68182621661674;                       !- December Surface Ground Temperature {C}

OS:ThermalZone,
  {4e383e69-6020-49a0-a56d-49445313e196}, !- Handle
  conditioned space,                      !- Name
  1,                                      !- Multiplier
  ,                                       !- Ceiling Height {m}
  692.06373070848,                        !- Volume {m3}
  ,                                       !- Floor Area {m2}
  ,                                       !- Zone Inside Convection Algorithm
  ,                                       !- Zone Outside Convection Algorithm
  ,                                       !- Zone Conditioning Equipment List Name
  {36c38b55-61c2-46bc-a64d-0a55deb411bb}, !- Zone Air Inlet Port List
  {313d0918-7d62-433e-ba0d-b0bd458bce9f}, !- Zone Air Exhaust Port List
  {268d6234-306b-4b30-bf9e-2a85013c648d}, !- Zone Air Node Name
  {106c1111-e844-4bf1-9259-cbf0187fdb3c}, !- Zone Return Air Port List
  ,                                       !- Primary Daylighting Control Name
  ,                                       !- Fraction of Zone Controlled by Primary Daylighting Control
  ,                                       !- Secondary Daylighting Control Name
  ,                                       !- Fraction of Zone Controlled by Secondary Daylighting Control
  ,                                       !- Illuminance Map Name
  ,                                       !- Group Rendering Name
  {4ce9819b-c6be-451b-8a30-21e714ae301f}, !- Thermostat Name
  No;                                     !- Use Ideal Air Loads

OS:Node,
  {e7332010-4705-4b4c-ba2e-795f51fac53a}, !- Handle
  Node 1,                                 !- Name
  {268d6234-306b-4b30-bf9e-2a85013c648d}, !- Inlet Port
  ;                                       !- Outlet Port

OS:Connection,
  {268d6234-306b-4b30-bf9e-2a85013c648d}, !- Handle
  {4e383e69-6020-49a0-a56d-49445313e196}, !- Source Object
  11,                                     !- Outlet Port
  {e7332010-4705-4b4c-ba2e-795f51fac53a}, !- Target Object
  2;                                      !- Inlet Port

OS:PortList,
  {36c38b55-61c2-46bc-a64d-0a55deb411bb}, !- Handle
  {4e383e69-6020-49a0-a56d-49445313e196}, !- HVAC Component
  {e9713b84-4375-4275-82c9-35c0c8357a7e}; !- Port 1

OS:PortList,
  {313d0918-7d62-433e-ba0d-b0bd458bce9f}, !- Handle
  {4e383e69-6020-49a0-a56d-49445313e196}; !- HVAC Component

OS:PortList,
  {106c1111-e844-4bf1-9259-cbf0187fdb3c}, !- Handle
  {4e383e69-6020-49a0-a56d-49445313e196}, !- HVAC Component
  {30c3c7a7-de62-407b-b7f8-2c1c562ced06}; !- Port 1

OS:Sizing:Zone,
  {98bfda01-6e25-4184-b2d7-4652ad3d23f0}, !- Handle
  {4e383e69-6020-49a0-a56d-49445313e196}, !- Zone or ZoneList Name
  SupplyAirTemperature,                   !- Zone Cooling Design Supply Air Temperature Input Method
  14,                                     !- Zone Cooling Design Supply Air Temperature {C}
  11.11,                                  !- Zone Cooling Design Supply Air Temperature Difference {deltaC}
  SupplyAirTemperature,                   !- Zone Heating Design Supply Air Temperature Input Method
  40,                                     !- Zone Heating Design Supply Air Temperature {C}
  11.11,                                  !- Zone Heating Design Supply Air Temperature Difference {deltaC}
  0.0085,                                 !- Zone Cooling Design Supply Air Humidity Ratio {kg-H2O/kg-air}
  0.008,                                  !- Zone Heating Design Supply Air Humidity Ratio {kg-H2O/kg-air}
  ,                                       !- Zone Heating Sizing Factor
  ,                                       !- Zone Cooling Sizing Factor
  DesignDay,                              !- Cooling Design Air Flow Method
  ,                                       !- Cooling Design Air Flow Rate {m3/s}
  ,                                       !- Cooling Minimum Air Flow per Zone Floor Area {m3/s-m2}
  ,                                       !- Cooling Minimum Air Flow {m3/s}
  ,                                       !- Cooling Minimum Air Flow Fraction
  DesignDay,                              !- Heating Design Air Flow Method
  ,                                       !- Heating Design Air Flow Rate {m3/s}
  ,                                       !- Heating Maximum Air Flow per Zone Floor Area {m3/s-m2}
  ,                                       !- Heating Maximum Air Flow {m3/s}
  ,                                       !- Heating Maximum Air Flow Fraction
  No,                                     !- Account for Dedicated Outdoor Air System
  NeutralSupplyAir,                       !- Dedicated Outdoor Air System Control Strategy
  autosize,                               !- Dedicated Outdoor Air Low Setpoint Temperature for Design {C}
  autosize,                               !- Dedicated Outdoor Air High Setpoint Temperature for Design {C}
  Sensible Load Only No Latent Load,      !- Zone Load Sizing Method
  HumidityRatioDifference,                !- Zone Latent Cooling Design Supply Air Humidity Ratio Input Method
  ,                                       !- Zone Dehumidification Design Supply Air Humidity Ratio {kgWater/kgDryAir}
  0.005,                                  !- Zone Cooling Design Supply Air Humidity Ratio Difference {kgWater/kgDryAir}
  HumidityRatioDifference,                !- Zone Latent Heating Design Supply Air Humidity Ratio Input Method
  ,                                       !- Zone Humidification Design Supply Air Humidity Ratio {kgWater/kgDryAir}
  0.005,                                  !- Zone Humidification Design Supply Air Humidity Ratio Difference {kgWater/kgDryAir}
  ,                                       !- Zone Humidistat Dehumidification Set Point Schedule Name
  ,                                       !- Zone Humidistat Humidification Set Point Schedule Name
  ,                                       !- Design Zone Air Distribution Effectiveness in Cooling Mode
  ,                                       !- Design Zone Air Distribution Effectiveness in Heating Mode
  ,                                       !- Design Zone Secondary Recirculation Fraction {dimensionless}
  ,                                       !- Design Minimum Zone Ventilation Efficiency {dimensionless}
  Coincident;                             !- Sizing Option

OS:ZoneHVAC:EquipmentList,
  {344a712f-8432-44f0-b789-00fe38fdb6fc}, !- Handle
  Zone HVAC Equipment List 1,             !- Name
  {4e383e69-6020-49a0-a56d-49445313e196}, !- Thermal Zone
  ,                                       !- Load Distribution Scheme
  {8e898e3d-087a-4296-9749-2276528aa273}, !- Zone Equipment 1
  1,                                      !- Zone Equipment Cooling Sequence 1
  1,                                      !- Zone Equipment Heating or No-Load Sequence 1
  {5e81dbb4-39fe-4700-bf5d-a524dd2a465d}, !- Zone Equipment Sequential Cooling Fraction Schedule Name 1
  {eeb989d8-d486-44e2-94cb-d7cc30755b8b}, !- Zone Equipment Sequential Heating Fraction Schedule Name 1
  {fcf5fdf5-7e56-42d0-9cc8-871f40e8a45e}, !- Zone Equipment 2
  2,                                      !- Zone Equipment Cooling Sequence 2
  2,                                      !- Zone Equipment Heating or No-Load Sequence 2
  {58e781a3-9d0d-46b6-a681-f905afaed03a}, !- Zone Equipment Sequential Cooling Fraction Schedule Name 2
  {5bc8ee57-d199-4258-96b4-0a50c88b037c}; !- Zone Equipment Sequential Heating Fraction Schedule Name 2

OS:AdditionalProperties,
  {860071fb-904e-471e-a3fc-a87ddfb89a1a}, !- Handle
  {4e383e69-6020-49a0-a56d-49445313e196}, !- Object Name
  ObjectType,                             !- Feature Name 1
  String,                                 !- Feature Data Type 1
  conditioned space;                      !- Feature Value 1

OS:Space,
  {10672e79-c237-4918-a96e-83bdae6fe8cc}, !- Handle
  conditioned space 1,                    !- Name
  ,                                       !- Space Type Name
  ,                                       !- Default Construction Set Name
  ,                                       !- Default Schedule Set Name
  ,                                       !- Direction of Relative North {deg}
  ,                                       !- X Origin {m}
  ,                                       !- Y Origin {m}
  ,                                       !- Z Origin {m}
  ,                                       !- Building Story Name
  {4e383e69-6020-49a0-a56d-49445313e196}, !- Thermal Zone Name
  ,                                       !- Part of Total Floor Area
  ,                                       !- Design Specification Outdoor Air Object Name
  ,                                       !- Building Unit Name
  692.06373070848;                        !- Volume {m3}

OS:Schedule:Ruleset,
  {a4a1cb98-165b-46b1-a2da-af0ccb2a1974}, !- Handle
  heating setpoint,                       !- Name
  {2a455a39-3108-4170-a7f7-920f34f3e544}, !- Schedule Type Limits Name
  {efb51ce1-b82a-4536-aefd-62fb088d5386}; !- Default Day Schedule Name

OS:Schedule:Day,
  {efb51ce1-b82a-4536-aefd-62fb088d5386}, !- Handle
  heating setpoint default day,           !- Name
  {2a455a39-3108-4170-a7f7-920f34f3e544}, !- Schedule Type Limits Name
  ,                                       !- Interpolate to Timestep
  24,                                     !- Hour 1
  0,                                      !- Minute 1
  0;                                      !- Value Until Time 1

OS:Schedule:Rule,
  {a627be4f-fdbd-40b4-bcf7-fcf64e73d8f8}, !- Handle
  heating setpoint allday rule,           !- Name
  {a4a1cb98-165b-46b1-a2da-af0ccb2a1974}, !- Schedule Ruleset Name
  0,                                      !- Rule Order
  {860d6e3a-f8bc-490f-9832-ce25f96af0df}, !- Day Schedule Name
  Yes,                                    !- Apply Sunday
  Yes,                                    !- Apply Monday
  Yes,                                    !- Apply Tuesday
  Yes,                                    !- Apply Wednesday
  Yes,                                    !- Apply Thursday
  Yes,                                    !- Apply Friday
  Yes,                                    !- Apply Saturday
  DateRange,                              !- Date Specification Type
  1,                                      !- Start Month
  1,                                      !- Start Day
  12,                                     !- End Month
  31;                                     !- End Day

OS:Schedule:Day,
  {860d6e3a-f8bc-490f-9832-ce25f96af0df}, !- Handle
  heating setpoint day,                   !- Name
  {2a455a39-3108-4170-a7f7-920f34f3e544}, !- Schedule Type Limits Name
  ,                                       !- Interpolate to Timestep
  24,                                     !- Hour 1
  0,                                      !- Minute 1
  20;                                     !- Value Until Time 1

OS:Schedule:Ruleset,
  {a1258ca7-3117-43da-a023-f1d88ac768d0}, !- Handle
  cooling setpoint,                       !- Name
  {2a455a39-3108-4170-a7f7-920f34f3e544}, !- Schedule Type Limits Name
  {a5a30897-b489-4282-9fe6-74dbb27d7f11}; !- Default Day Schedule Name

OS:Schedule:Day,
  {a5a30897-b489-4282-9fe6-74dbb27d7f11}, !- Handle
  cooling setpoint default day,           !- Name
  {2a455a39-3108-4170-a7f7-920f34f3e544}, !- Schedule Type Limits Name
  ,                                       !- Interpolate to Timestep
  24,                                     !- Hour 1
  0,                                      !- Minute 1
  0;                                      !- Value Until Time 1

OS:Schedule:Rule,
  {31914c95-42a3-4b65-b3f5-8004d0c533bf}, !- Handle
  cooling setpoint allday rule,           !- Name
  {a1258ca7-3117-43da-a023-f1d88ac768d0}, !- Schedule Ruleset Name
  0,                                      !- Rule Order
  {d9ef21d4-491d-46e3-9b9e-e4c1d177fc1e}, !- Day Schedule Name
  Yes,                                    !- Apply Sunday
  Yes,                                    !- Apply Monday
  Yes,                                    !- Apply Tuesday
  Yes,                                    !- Apply Wednesday
  Yes,                                    !- Apply Thursday
  Yes,                                    !- Apply Friday
  Yes,                                    !- Apply Saturday
  DateRange,                              !- Date Specification Type
  1,                                      !- Start Month
  1,                                      !- Start Day
  12,                                     !- End Month
  31;                                     !- End Day

OS:Schedule:Day,
  {d9ef21d4-491d-46e3-9b9e-e4c1d177fc1e}, !- Handle
  cooling setpoint day,                   !- Name
  {2a455a39-3108-4170-a7f7-920f34f3e544}, !- Schedule Type Limits Name
  ,                                       !- Interpolate to Timestep
  24,                                     !- Hour 1
  0,                                      !- Minute 1
  25.5555555555556;                       !- Value Until Time 1

OS:ThermostatSetpoint:DualSetpoint,
  {4ce9819b-c6be-451b-8a30-21e714ae301f}, !- Handle
  conditioned space temperature setpoint, !- Name
  {a4a1cb98-165b-46b1-a2da-af0ccb2a1974}, !- Heating Setpoint Temperature Schedule Name
  {a1258ca7-3117-43da-a023-f1d88ac768d0}, !- Cooling Setpoint Temperature Schedule Name
  0;                                      !- Temperature Difference Between Cutout And Setpoint {deltaC}

OS:ScheduleTypeLimits,
  {2a455a39-3108-4170-a7f7-920f34f3e544}, !- Handle
  Temperature,                            !- Name
  ,                                       !- Lower Limit Value
  ,                                       !- Upper Limit Value
  Continuous,                             !- Numeric Type
  Temperature;                            !- Unit Type

OS:Surface,
  {4af6f36a-1360-4076-b90c-a377840ab865}, !- Handle
  Roof1,                                  !- Name
  RoofCeiling,                            !- Surface Type
  {263abb4d-9c33-4ff6-8d4a-41658e6517c2}, !- Construction Name
  {42a5b219-42a2-4dc9-9231-790648784b9a}, !- Space Name
  Outdoors,                               !- Outside Boundary Condition
  ,                                       !- Outside Boundary Condition Object
  SunExposed,                             !- Sun Exposure
  WindExposed,                            !- Wind Exposure
  ,                                       !- View Factor to Ground
  ,                                       !- Number of Vertices
  -26.9347048849634, 58.0557891618865, 2.4384, !- X,Y,Z Vertex 1 {m}
  -26.9347048849634, 46.7895631136661, 8.0715130241102, !- X,Y,Z Vertex 2 {m}
  -14.3386812381136, 46.7895631136661, 8.0715130241102, !- X,Y,Z Vertex 3 {m}
  -14.3386812381136, 58.0557891618865, 2.4384; !- X,Y,Z Vertex 4 {m}

OS:AdditionalProperties,
  {89233358-4df4-473d-81b8-34fac7cf11d0}, !- Handle
  {4af6f36a-1360-4076-b90c-a377840ab865}, !- Object Name
  Length,                                 !- Feature Name 1
  Double,                                 !- Feature Data Type 1
  41.325536899113608,                     !- Feature Value 1
  Width,                                  !- Feature Name 2
  Double,                                 !- Feature Data Type 2
  41.325536899113601,                     !- Feature Value 2
  Azimuth,                                !- Feature Name 3
  Integer,                                !- Feature Data Type 3
  0,                                      !- Feature Value 3
  Tilt,                                   !- Feature Name 4
  Double,                                 !- Feature Data Type 4
  0.5,                                    !- Feature Value 4
  SurfaceType,                            !- Feature Name 5
  String,                                 !- Feature Data Type 5
  Roof;                                   !- Feature Value 5

OS:ThermalZone,
  {a52e5bdd-3224-45eb-91fd-d2a992eb3d9b}, !- Handle
  attic - vented,                         !- Name
  1,                                      !- Multiplier
  ,                                       !- Ceiling Height {m}
  356.389957095237,                       !- Volume {m3}
  ,                                       !- Floor Area {m2}
  ,                                       !- Zone Inside Convection Algorithm
  ,                                       !- Zone Outside Convection Algorithm
  ,                                       !- Zone Conditioning Equipment List Name
  {9f78eec6-7159-40e6-a1dc-d38ea9604455}, !- Zone Air Inlet Port List
  {5aeb22c8-40db-4e88-88ed-8647de143416}, !- Zone Air Exhaust Port List
  {6f920d5c-8a9a-4892-8409-2c21b9f0b3a4}, !- Zone Air Node Name
  {c85775e0-c285-42e3-ad72-12c1c0aeaca6}, !- Zone Return Air Port List
  ,                                       !- Primary Daylighting Control Name
  ,                                       !- Fraction of Zone Controlled by Primary Daylighting Control
  ,                                       !- Secondary Daylighting Control Name
  ,                                       !- Fraction of Zone Controlled by Secondary Daylighting Control
  ,                                       !- Illuminance Map Name
  ,                                       !- Group Rendering Name
  ,                                       !- Thermostat Name
  No;                                     !- Use Ideal Air Loads

OS:Node,
  {27a7f333-070c-453c-8819-40ca1c248aa3}, !- Handle
  Node 2,                                 !- Name
  {6f920d5c-8a9a-4892-8409-2c21b9f0b3a4}, !- Inlet Port
  ;                                       !- Outlet Port

OS:Connection,
  {6f920d5c-8a9a-4892-8409-2c21b9f0b3a4}, !- Handle
  {a52e5bdd-3224-45eb-91fd-d2a992eb3d9b}, !- Source Object
  11,                                     !- Outlet Port
  {27a7f333-070c-453c-8819-40ca1c248aa3}, !- Target Object
  2;                                      !- Inlet Port

OS:PortList,
  {9f78eec6-7159-40e6-a1dc-d38ea9604455}, !- Handle
  {a52e5bdd-3224-45eb-91fd-d2a992eb3d9b}; !- HVAC Component

OS:PortList,
  {5aeb22c8-40db-4e88-88ed-8647de143416}, !- Handle
  {a52e5bdd-3224-45eb-91fd-d2a992eb3d9b}; !- HVAC Component

OS:PortList,
  {c85775e0-c285-42e3-ad72-12c1c0aeaca6}, !- Handle
  {a52e5bdd-3224-45eb-91fd-d2a992eb3d9b}; !- HVAC Component

OS:Sizing:Zone,
  {f05fb664-a98f-4c9d-b174-f06ebfcd5cc1}, !- Handle
  {a52e5bdd-3224-45eb-91fd-d2a992eb3d9b}, !- Zone or ZoneList Name
  SupplyAirTemperature,                   !- Zone Cooling Design Supply Air Temperature Input Method
  14,                                     !- Zone Cooling Design Supply Air Temperature {C}
  11.11,                                  !- Zone Cooling Design Supply Air Temperature Difference {deltaC}
  SupplyAirTemperature,                   !- Zone Heating Design Supply Air Temperature Input Method
  40,                                     !- Zone Heating Design Supply Air Temperature {C}
  11.11,                                  !- Zone Heating Design Supply Air Temperature Difference {deltaC}
  0.0085,                                 !- Zone Cooling Design Supply Air Humidity Ratio {kg-H2O/kg-air}
  0.008,                                  !- Zone Heating Design Supply Air Humidity Ratio {kg-H2O/kg-air}
  ,                                       !- Zone Heating Sizing Factor
  ,                                       !- Zone Cooling Sizing Factor
  DesignDay,                              !- Cooling Design Air Flow Method
  ,                                       !- Cooling Design Air Flow Rate {m3/s}
  ,                                       !- Cooling Minimum Air Flow per Zone Floor Area {m3/s-m2}
  ,                                       !- Cooling Minimum Air Flow {m3/s}
  ,                                       !- Cooling Minimum Air Flow Fraction
  DesignDay,                              !- Heating Design Air Flow Method
  ,                                       !- Heating Design Air Flow Rate {m3/s}
  ,                                       !- Heating Maximum Air Flow per Zone Floor Area {m3/s-m2}
  ,                                       !- Heating Maximum Air Flow {m3/s}
  ,                                       !- Heating Maximum Air Flow Fraction
  No,                                     !- Account for Dedicated Outdoor Air System
  NeutralSupplyAir,                       !- Dedicated Outdoor Air System Control Strategy
  autosize,                               !- Dedicated Outdoor Air Low Setpoint Temperature for Design {C}
  autosize,                               !- Dedicated Outdoor Air High Setpoint Temperature for Design {C}
  Sensible Load Only No Latent Load,      !- Zone Load Sizing Method
  HumidityRatioDifference,                !- Zone Latent Cooling Design Supply Air Humidity Ratio Input Method
  ,                                       !- Zone Dehumidification Design Supply Air Humidity Ratio {kgWater/kgDryAir}
  0.005,                                  !- Zone Cooling Design Supply Air Humidity Ratio Difference {kgWater/kgDryAir}
  HumidityRatioDifference,                !- Zone Latent Heating Design Supply Air Humidity Ratio Input Method
  ,                                       !- Zone Humidification Design Supply Air Humidity Ratio {kgWater/kgDryAir}
  0.005,                                  !- Zone Humidification Design Supply Air Humidity Ratio Difference {kgWater/kgDryAir}
  ,                                       !- Zone Humidistat Dehumidification Set Point Schedule Name
  ,                                       !- Zone Humidistat Humidification Set Point Schedule Name
  ,                                       !- Design Zone Air Distribution Effectiveness in Cooling Mode
  ,                                       !- Design Zone Air Distribution Effectiveness in Heating Mode
  ,                                       !- Design Zone Secondary Recirculation Fraction {dimensionless}
  ,                                       !- Design Minimum Zone Ventilation Efficiency {dimensionless}
  Coincident;                             !- Sizing Option

OS:ZoneHVAC:EquipmentList,
  {3a172fd9-b792-4834-833b-a50548e4c459}, !- Handle
  Zone HVAC Equipment List 2,             !- Name
  {a52e5bdd-3224-45eb-91fd-d2a992eb3d9b}; !- Thermal Zone

OS:AdditionalProperties,
  {d5c79ae9-83d9-489b-8f5b-05f992c8645a}, !- Handle
  {a52e5bdd-3224-45eb-91fd-d2a992eb3d9b}, !- Object Name
  ObjectType,                             !- Feature Name 1
  String,                                 !- Feature Data Type 1
  attic - vented;                         !- Feature Value 1

OS:Space,
  {42a5b219-42a2-4dc9-9231-790648784b9a}, !- Handle
  attic - vented 1,                       !- Name
  ,                                       !- Space Type Name
  ,                                       !- Default Construction Set Name
  ,                                       !- Default Schedule Set Name
  ,                                       !- Direction of Relative North {deg}
  ,                                       !- X Origin {m}
  ,                                       !- Y Origin {m}
  ,                                       !- Z Origin {m}
  ,                                       !- Building Story Name
  {a52e5bdd-3224-45eb-91fd-d2a992eb3d9b}, !- Thermal Zone Name
  ,                                       !- Part of Total Floor Area
  ,                                       !- Design Specification Outdoor Air Object Name
  ,                                       !- Building Unit Name
  356.389957095237;                       !- Volume {m3}

OS:Material,
  {4e1e03d6-97ea-4af4-a2cd-505c1dfe5a60}, !- Handle
  asphalt or fiberglass shingles,         !- Name