
OS:Version,
  {c0207cf2-79cf-4245-b250-2160916d9fcc}, !- Handle
  3.10.0;                                 !- Version Identifier

OS:SimulationControl,
  {b13e62a9-c557-42b9-a008-b403605a9ee1}, !- Handle
  ,                                       !- Do Zone Sizing Calculation
  ,                                       !- Do System Sizing Calculation
  ,                                       !- Do Plant Sizing Calculation
  No;                                     !- Run Simulation for Sizing Periods

OS:Timestep,
  {d23feda4-c29c-442b-84ab-e77aedbc8e82}, !- Handle
  1;                                      !- Number of Timesteps per Hour

OS:ShadowCalculation,
  {b1855bb9-a4ce-44e9-a6de-402237eff4c1}, !- Handle
  PolygonClipping,                        !- Shading Calculation Method
  ,                                       !- Shading Calculation Update Frequency Method
  20,                                     !- Shading Calculation Update Frequency
  200,                                    !- Maximum Figures in Shadow Overlap Calculations
  ,                                       !- Polygon Clipping Algorithm
  512,                                    !- Pixel Counting Resolution
  ,                                       !- Sky Diffuse Modeling Algorithm
  No,                                     !- Output External Shading Calculation Results
  No,                                     !- Disable Self-Shading Within Shading Zone Groups
  No;                                     !- Disable Self-Shading From Shading Zone Groups to Other Zones

OS:SurfaceConvectionAlgorithm:Outside,
  {f19f184f-c581-46c1-b4fd-e005838c10d5}, !- Handle
  DOE-2;                                  !- Algorithm

OS:SurfaceConvectionAlgorithm:Inside,
  {25b9a33d-dbe9-497f-a0af-9f508f9444d3}, !- Handle
  TARP;                                   !- Algorithm

OS:ZoneCapacitanceMultiplier:ResearchSpecial,
  {031a27a2-089f-4e62-b392-414ed071d0ff}, !- Handle
  7,                                      !- Temperature Capacity Multiplier
  15,                                     !- Humidity Capacity Multiplier
  ;                                       !- Carbon Dioxide Capacity Multiplier

OS:ConvergenceLimits,
  {f7f9df0f-4322-4f4b-9f88-1d79c0036077}, !- Handle
  0;                                      !- Minimum System Timestep {minutes}

OS:RunPeriod,
  {eb588a48-aa41-4ef9-80c9-7edb09aa8c0e}, !- Handle
  Run Period 1,                           !- Name
  1,                                      !- Begin Month
  1,                                      !- Begin Day of Month
  12,                                     !- End Month
  31,                                     !- End Day of Month
  ,                                       !- Use Weather File Holidays and Special Days
  ,                                       !- Use Weather File Daylight Saving Period
  ,                                       !- Apply Weekend Holiday Rule
  ,                                       !- Use Weather File Rain Indicators
  ,                                       !- Use Weather File Snow Indicators
  ;                                       !- Number of Times Runperiod to be Repeated

OS:PerformancePrecisionTradeoffs,
  {84b414a9-b2c6-466a-9d3a-953282360e21}, !- Handle
  ,                                       !- Use Coil Direct Solutions
  CarrollMRT;                             !- Zone Radiant Exchange Algorithm

OS:WeatherFile,
  {1d7036ae-24f5-4552-833b-d65f9da0ded9}, !- Handle
  Buffalo Niagara Intl Ap,                !- City
  NY,                                     !- State Province Region
  USA,                                    !- Country
  TMY3,                                   !- Data Source
  725280,                                 !- WMO Number
  42.93,                                  !- Latitude {deg}
  -78.73,                                 !- Longitude {deg}
  -5,                                     !- Time Zone {hr}
  215,                                    !- Elevation {m}
  /Users/nmoore/github/urbanopt-example-geojson-project/example_project/weather/USA_NY_Buffalo-Greater.Buffalo.Intl.AP.725280_TMY3.epw, !- Url
  6B50E0FF,                               !- Checksum
  ,                                       !- Start Date Actual Year
  Sunday;                                 !- Start Day of Week

OS:YearDescription,
  {b1012028-13fd-4be7-95a0-22510ca24357}, !- Handle
  2007,                                   !- Calendar Year
  ,                                       !- Day of Week for Start Day
  ;                                       !- Is Leap Year

OS:Site,
  {9809220c-7227-4c05-be32-67b1219e31e1}, !- Handle
  Buffalo Niagara Intl Ap_NY,             !- Name
  42.93,                                  !- Latitude {deg}
  -78.73,                                 !- Longitude {deg}
  -5,                                     !- Time Zone {hr}
  215,                                    !- Elevation {m}
  Suburbs,                                !- Terrain
  Yes;                                    !- Keep Site Location Information

OS:RunPeriodControl:DaylightSavingTime,
  {9b2a371b-191b-43e3-a6b9-0d5797591b23}, !- Handle
  Mar 12,                                 !- Start Date
  Nov 5;                                  !- End Date

OS:Site:GroundTemperature:Shallow,
  {748620fe-0b51-4227-b56f-1e49967b4bea}, !- Handle
  4.30207395723828,                       !- January Surface Ground Temperature {C}
  2.29327249652502,                       !- February Surface Ground Temperature {C}
  2.13240047156047,                       !- March Surface Ground Temperature {C}
  3.08567940719286,                       !- April Surface Ground Temperature {C}
  6.91256312497526,                       !- May Surface Ground Temperature {C}
  10.7216195949507,                       !- June Surface Ground Temperature {C}
  14.0238679822574,                       !- July Surface Ground Temperature {C}
  16.1157611184724,                       !- August Surface Ground Temperature {C}
  16.2934789303462,                       !- September Surface Ground Temperature {C}
  14.5920754632847,                       !- October Surface Ground Temperature {C}
  11.374036348653,                        !- November Surface Ground Temperature {C}
  7.68182621661674;                       !- December Surface Ground Temperature {C}

OS:ThermalZone,
  {e86970d3-bf46-4ffc-975c-05cb641941cb}, !- Handle
  conditioned space,                      !- Name
  1,                                      !- Multiplier
  ,                                       !- Ceiling Height {m}
  692.06373070848,                        !- Volume {m3}
  ,                                       !- Floor Area {m2}
  ,                                       !- Zone Inside Convection Algorithm
  ,                                       !- Zone Outside Convection Algorithm
  ,                                       !- Zone Conditioning Equipment List Name
  {c3404496-8e56-4558-9a82-aa089e9e5fed}, !- Zone Air Inlet Port List
  {c1128185-6c54-4320-9a9b-c259950000b0}, !- Zone Air Exhaust Port List
  {2b0f95a0-e4e5-4c97-9ed4-79f5a8818d7b}, !- Zone Air Node Name
  {301fa106-24b7-439b-ab16-41d1f57b50c8}, !- Zone Return Air Port List
  ,                                       !- Primary Daylighting Control Name
  ,                                       !- Fraction of Zone Controlled by Primary Daylighting Control
  ,                                       !- Secondary Daylighting Control Name
  ,                                       !- Fraction of Zone Controlled by Secondary Daylighting Control
  ,                                       !- Illuminance Map Name
  ,                                       !- Group Rendering Name
  {a08a1eff-fdc3-411b-9a88-341adbe20b1f}, !- Thermostat Name
  No;                                     !- Use Ideal Air Loads

OS:Node,
  {49165150-9331-49be-870c-2f9fa3cea10b}, !- Handle
  Node 1,                                 !- Name
  {2b0f95a0-e4e5-4c97-9ed4-79f5a8818d7b}, !- Inlet Port
  ;                                       !- Outlet Port

OS:Connection,
  {2b0f95a0-e4e5-4c97-9ed4-79f5a8818d7b}, !- Handle
  {e86970d3-bf46-4ffc-975c-05cb641941cb}, !- Source Object
  11,                                     !- Outlet Port
  {49165150-9331-49be-870c-2f9fa3cea10b}, !- Target Object
  2;                                      !- Inlet Port

OS:PortList,
  {c3404496-8e56-4558-9a82-aa089e9e5fed}, !- Handle
  {e86970d3-bf46-4ffc-975c-05cb641941cb}, !- HVAC Component
  {55b6e9ef-be53-4ae7-9875-9659d598a7a2}; !- Port 1

OS:PortList,
  {c1128185-6c54-4320-9a9b-c259950000b0}, !- Handle
  {e86970d3-bf46-4ffc-975c-05cb641941cb}; !- HVAC Component

OS:PortList,
  {301fa106-24b7-439b-ab16-41d1f57b50c8}, !- Handle
  {e86970d3-bf46-4ffc-975c-05cb641941cb}, !- HVAC Component
  {19606e3f-5b87-4a56-b578-d0f2c967d116}; !- Port 1

OS:Sizing:Zone,
  {54eca6f2-1bb3-4d7e-9fa8-3ac8c03bf9f8}, !- Handle
  {e86970d3-bf46-4ffc-975c-05cb641941cb}, !- Zone or ZoneList Name
  SupplyAirTemperature,                   !- Zone Cooling Design Supply Air Temperature Input Method
  14,                                     !- Zone Cooling Design Supply Air Temperature {C}
  11.11,                                  !- Zone Cooling Design Supply Air Temperature Difference {deltaC}
  SupplyAirTemperature,                   !- Zone Heating Design Supply Air Temperature Input Method
  40,                                     !- Zone Heating Design Supply Air Temperature {C}
  11.11,                                  !- Zone Heating Design Supply Air Temperature Difference {deltaC}
  0.0085,                                 !- Zone Cooling Design Supply Air Humidity Ratio {kg-H2O/kg-air}
  0.008,                                  !- Zone Heating Design Supply Air Humidity Ratio {kg-H2O/kg-air}
  ,                                       !- Zone Heating Sizing Factor
  ,                                       !- Zone Cooling Sizing Factor
  DesignDay,                              !- Cooling Design Air Flow Method
  ,                                       !- Cooling Design Air Flow Rate {m3/s}
  ,                                       !- Cooling Minimum Air Flow per Zone Floor Area {m3/s-m2}
  ,                                       !- Cooling Minimum Air Flow {m3/s}
  ,                                       !- Cooling Minimum Air Flow Fraction
  DesignDay,                              !- Heating Design Air Flow Method
  ,                                       !- Heating Design Air Flow Rate {m3/s}
  ,                                       !- Heating Maximum Air Flow per Zone Floor Area {m3/s-m2}
  ,                                       !- Heating Maximum Air Flow {m3/s}
  ,                                       !- Heating Maximum Air Flow Fraction
  No,                                     !- Account for Dedicated Outdoor Air System
  NeutralSupplyAir,                       !- Dedicated Outdoor Air System Control Strategy
  autosize,                               !- Dedicated Outdoor Air Low Setpoint Temperature for Design {C}
  autosize,                               !- Dedicated Outdoor Air High Setpoint Temperature for Design {C}
  Sensible Load Only No Latent Load,      !- Zone Load Sizing Method
  HumidityRatioDifference,                !- Zone Latent Cooling Design Supply Air Humidity Ratio Input Method
  ,                                       !- Zone Dehumidification Design Supply Air Humidity Ratio {kgWater/kgDryAir}
  0.005,                                  !- Zone Cooling Design Supply Air Humidity Ratio Difference {kgWater/kgDryAir}
  HumidityRatioDifference,                !- Zone Latent Heating Design Supply Air Humidity Ratio Input Method
  ,                                       !- Zone Humidification Design Supply Air Humidity Ratio {kgWater/kgDryAir}
  0.005,                                  !- Zone Humidification Design Supply Air Humidity Ratio Difference {kgWater/kgDryAir}
  ,                                       !- Zone Humidistat Dehumidification Set Point Schedule Name
  ,                                       !- Zone Humidistat Humidification Set Point Schedule Name
  ,                                       !- Design Zone Air Distribution Effectiveness in Cooling Mode
  ,                                       !- Design Zone Air Distribution Effectiveness in Heating Mode
  ,                                       !- Design Zone Secondary Recirculation Fraction {dimensionless}
  ,                                       !- Design Minimum Zone Ventilation Efficiency {dimensionless}
  Coincident;                             !- Sizing Option

OS:ZoneHVAC:EquipmentList,
  {84dfdb53-2b9b-4888-b862-19b5c2d1f0ad}, !- Handle
  Zone HVAC Equipment List 1,             !- Name
  {e86970d3-bf46-4ffc-975c-05cb641941cb}, !- Thermal Zone
  ,                                       !- Load Distribution Scheme
  {9d90389a-3876-4bf9-9445-6c5aee031169}, !- Zone Equipment 1
  1,                                      !- Zone Equipment Cooling Sequence 1
  1,                                      !- Zone Equipment Heating or No-Load Sequence 1
  {2c479fdc-3b81-4dc6-a386-69983dabdfdc}, !- Zone Equipment Sequential Cooling Fraction Schedule Name 1
  {22b7d5c2-c77e-4a0e-bee3-29265a82c173}, !- Zone Equipment Sequential Heating Fraction Schedule Name 1
  {6a583318-e3c3-4631-89da-607b33f8687f}, !- Zone Equipment 2
  2,                                      !- Zone Equipment Cooling Sequence 2
  2,                                      !- Zone Equipment Heating or No-Load Sequence 2
  {603eee30-824f-4f9d-89d3-05eb6ab1875d}, !- Zone Equipment Sequential Cooling Fraction Schedule Name 2
  {f1348897-35ad-4f50-9ad8-96ac1c4a3f83}; !- Zone Equipment Sequential Heating Fraction Schedule Name 2

OS:AdditionalProperties,
  {c55e1aa1-9988-4601-af3d-7d1f431dbf45}, !- Handle
  {e86970d3-bf46-4ffc-975c-05cb641941cb}, !- Object Name
  ObjectType,                             !- Feature Name 1
  String,                                 !- Feature Data Type 1
  conditioned space;                      !- Feature Value 1

OS:Space,
  {cfbd4228-e305-4b5a-a39b-e2d6d76d2260}, !- Handle
  conditioned space 1,                    !- Name
  ,                                       !- Space Type Name
  ,                                       !- Default Construction Set Name
  ,                                       !- Default Schedule Set Name
  ,                                       !- Direction of Relative North {deg}
  ,                                       !- X Origin {m}
  ,                                       !- Y Origin {m}
  ,                                       !- Z Origin {m}
  ,                                       !- Building Story Name
  {e86970d3-bf46-4ffc-975c-05cb641941cb}, !- Thermal Zone Name
  ,                                       !- Part of Total Floor Area
  ,                                       !- Design Specification Outdoor Air Object Name
  ,                                       !- Building Unit Name
  692.06373070848;                        !- Volume {m3}

OS:Schedule:Ruleset,
  {b5a3a0fe-f41a-498e-9878-14924244a485}, !- Handle
  heating setpoint,                       !- Name
  {5628eb28-03f7-4bab-ba75-f9f9e835bfe6}, !- Schedule Type Limits Name
  {0ebbc996-2382-4c4d-92f0-cdd4e1ec8721}; !- Default Day Schedule Name

OS:Schedule:Day,
  {0ebbc996-2382-4c4d-92f0-cdd4e1ec8721}, !- Handle
  heating setpoint default day,           !- Name
  {5628eb28-03f7-4bab-ba75-f9f9e835bfe6}, !- Schedule Type Limits Name
  ,                                       !- Interpolate to Timestep
  24,                                     !- Hour 1
  0,                                      !- Minute 1
  0;                                      !- Value Until Time 1

OS:Schedule:Rule,
  {87eb8534-3aa2-433d-b350-e7635cdc35d2}, !- Handle
  heating setpoint allday rule,           !- Name
  {b5a3a0fe-f41a-498e-9878-14924244a485}, !- Schedule Ruleset Name
  0,                                      !- Rule Order
  {91f457e0-cee1-415a-abe6-8ca773f9c39c}, !- Day Schedule Name
  Yes,                                    !- Apply Sunday
  Yes,                                    !- Apply Monday
  Yes,                                    !- Apply Tuesday
  Yes,                                    !- Apply Wednesday
  Yes,                                    !- Apply Thursday
  Yes,                                    !- Apply Friday
  Yes,                                    !- Apply Saturday
  DateRange,                              !- Date Specification Type
  1,                                      !- Start Month
  1,                                      !- Start Day
  12,                                     !- End Month
  31;                                     !- End Day

OS:Schedule:Day,
  {91f457e0-cee1-415a-abe6-8ca773f9c39c}, !- Handle
  heating setpoint day,                   !- Name
  {5628eb28-03f7-4bab-ba75-f9f9e835bfe6}, !- Schedule Type Limits Name
  ,                                       !- Interpolate to Timestep
  24,                                     !- Hour 1
  0,                                      !- Minute 1
  20;                                     !- Value Until Time 1

OS:Schedule:Ruleset,
  {a97eddcd-fcdf-49e6-ac04-fc122a94a893}, !- Handle
  cooling setpoint,                       !- Name
  {5628eb28-03f7-4bab-ba75-f9f9e835bfe6}, !- Schedule Type Limits Name
  {aa5a9194-b34d-463e-a587-20e3a9eac29c}; !- Default Day Schedule Name

OS:Schedule:Day,
  {aa5a9194-b34d-463e-a587-20e3a9eac29c}, !- Handle
  cooling setpoint default day,           !- Name
  {5628eb28-03f7-4bab-ba75-f9f9e835bfe6}, !- Schedule Type Limits Name
  ,                                       !- Interpolate to Timestep
  24,                                     !- Hour 1
  0,                                      !- Minute 1
  0;                                      !- Value Until Time 1

OS:Schedule:Rule,
  {dd0465a7-37f3-4907-a085-a53e7f434a68}, !- Handle
  cooling setpoint allday rule,           !- Name
  {a97eddcd-fcdf-49e6-ac04-fc122a94a893}, !- Schedule Ruleset Name
  0,                                      !- Rule Order
  {eed870b2-65f1-499e-a8ee-45be70a3df90}, !- Day Schedule Name
  Yes,                                    !- Apply Sunday
  Yes,                                    !- Apply Monday
  Yes,                                    !- Apply Tuesday
  Yes,                                    !- Apply Wednesday
  Yes,                                    !- Apply Thursday
  Yes,                                    !- Apply Friday
  Yes,                                    !- Apply Saturday
  DateRange,                              !- Date Specification Type
  1,                                      !- Start Month
  1,                                      !- Start Day
  12,                                     !- End Month
  31;                                     !- End Day

OS:Schedule:Day,
  {eed870b2-65f1-499e-a8ee-45be70a3df90}, !- Handle
  cooling setpoint day,                   !- Name
  {5628eb28-03f7-4bab-ba75-f9f9e835bfe6}, !- Schedule Type Limits Name
  ,                                       !- Interpolate to Timestep
  24,                                     !- Hour 1
  0,                                      !- Minute 1
  25.5555555555556;                       !- Value Until Time 1

OS:ThermostatSetpoint:DualSetpoint,
  {a08a1eff-fdc3-411b-9a88-341adbe20b1f}, !- Handle
  conditioned space temperature setpoint, !- Name
  {b5a3a0fe-f41a-498e-9878-14924244a485}, !- Heating Setpoint Temperature Schedule Name
  {a97eddcd-fcdf-49e6-ac04-fc122a94a893}, !- Cooling Setpoint Temperature Schedule Name
  0;                                      !- Temperature Difference Between Cutout And Setpoint {deltaC}

OS:ScheduleTypeLimits,
  {5628eb28-03f7-4bab-ba75-f9f9e835bfe6}, !- Handle
  Temperature,                            !- Name
  ,                                       !- Lower Limit Value
  ,                                       !- Upper Limit Value
  Continuous,                             !- Numeric Type
  Temperature;                            !- Unit Type

OS:Surface,
  {06a54d9e-1028-44c4-8edc-76f6f74a9d07}, !- Handle
  Roof1,                                  !- Name
  RoofCeiling,                            !- Surface Type
  {31e5fcb4-4dc8-4716-be17-7da30202c4a8}, !- Construction Name
  {bed2a347-5a0f-4b93-a396-ebfa1d2b4d64}, !- Space Name
  Outdoors,                               !- Outside Boundary Condition
  ,                                       !- Outside Boundary Condition Object
  SunExposed,                             !- Sun Exposure
  WindExposed,                            !- Wind Exposure
  ,                                       !- View Factor to Ground
  ,                                       !- Number of Vertices
  -26.9347048849634, 58.0557891618865, 2.4384, !- X,Y,Z Vertex 1 {m}
  -26.9347048849634, 46.7895631136661, 8.0715130241102, !- X,Y,Z Vertex 2 {m}
  -14.3386812381136, 46.7895631136661, 8.0715130241102, !- X,Y,Z Vertex 3 {m}
  -14.3386812381136, 58.0557891618865, 2.4384; !- X,Y,Z Vertex 4 {m}

OS:AdditionalProperties,
  {685b8a1a-c881-45dc-80c8-7cb19c722643}, !- Handle
  {06a54d9e-1028-44c4-8edc-76f6f74a9d07}, !- Object Name
  Length,                                 !- Feature Name 1
  Double,                                 !- Feature Data Type 1
  41.325536899113608,                     !- Feature Value 1
  Width,                                  !- Feature Name 2
  Double,                                 !- Feature Data Type 2
  41.325536899113601,                     !- Feature Value 2
  Azimuth,                                !- Feature Name 3
  Integer,                                !- Feature Data Type 3
  0,                                      !- Feature Value 3
  Tilt,                                   !- Feature Name 4
  Double,                                 !- Feature Data Type 4
  0.5,                                    !- Feature Value 4
  SurfaceType,                            !- Feature Name 5
  String,                                 !- Feature Data Type 5
  Roof;                                   !- Feature Value 5

OS:ThermalZone,
  {76d186e1-3c74-450f-9c40-02d6a80a96a9}, !- Handle
  attic - vented,                         !- Name
  1,                                      !- Multiplier
  ,                                       !- Ceiling Height {m}
  356.390921899745,                       !- Volume {m3}
  ,                                       !- Floor Area {m2}
  ,                                       !- Zone Inside Convection Algorithm
  ,                                       !- Zone Outside Convection Algorithm
  ,                                       !- Zone Conditioning Equipment List Name
  {46a47d86-e707-476a-a3c8-fefea296c67a}, !- Zone Air Inlet Port List
  {b6022357-840c-4ac2-8e5e-b102f4615e31}, !- Zone Air Exhaust Port List
  {547dc3a3-57eb-4584-b730-7b63c048c4b1}, !- Zone Air Node Name
  {d959509b-7110-45f9-8374-bd4303d0c983}, !- Zone Return Air Port List
  ,                                       !- Primary Daylighting Control Name
  ,                                       !- Fraction of Zone Controlled by Primary Daylighting Control
  ,                                       !- Secondary Daylighting Control Name
  ,                                       !- Fraction of Zone Controlled by Secondary Daylighting Control
  ,                                       !- Illuminance Map Name
  ,                                       !- Group Rendering Name
  ,                                       !- Thermostat Name
  No;                                     !- Use Ideal Air Loads

OS:Node,
  {6dce5e9f-0049-4d6a-928b-71b6c32aac54}, !- Handle
  Node 2,                                 !- Name
  {547dc3a3-57eb-4584-b730-7b63c048c4b1}, !- Inlet Port
  ;                                       !- Outlet Port

OS:Connection,
  {547dc3a3-57eb-4584-b730-7b63c048c4b1}, !- Handle
  {76d186e1-3c74-450f-9c40-02d6a80a96a9}, !- Source Object
  11,                                     !- Outlet Port
  {6dce5e9f-0049-4d6a-928b-71b6c32aac54}, !- Target Object
  2;                                      !- Inlet Port

OS:PortList,
  {46a47d86-e707-476a-a3c8-fefea296c67a}, !- Handle
  {76d186e1-3c74-450f-9c40-02d6a80a96a9}; !- HVAC Component

OS:PortList,
  {b6022357-840c-4ac2-8e5e-b102f4615e31}, !- Handle
  {76d186e1-3c74-450f-9c40-02d6a80a96a9}; !- HVAC Component

OS:PortList,
  {d959509b-7110-45f9-8374-bd4303d0c983}, !- Handle
  {76d186e1-3c74-450f-9c40-02d6a80a96a9}; !- HVAC Component

OS:Sizing:Zone,
  {00cb7267-8724-4793-babd-b0d183da0c49}, !- Handle
  {76d186e1-3c74-450f-9c40-02d6a80a96a9}, !- Zone or ZoneList Name
  SupplyAirTemperature,                   !- Zone Cooling Design Supply Air Temperature Input Method
  14,                                     !- Zone Cooling Design Supply Air Temperature {C}
  11.11,                                  !- Zone Cooling Design Supply Air Temperature Difference {deltaC}
  SupplyAirTemperature,                   !- Zone Heating Design Supply Air Temperature Input Method
  40,                                     !- Zone Heating Design Supply Air Temperature {C}
  11.11,                                  !- Zone Heating Design Supply Air Temperature Difference {deltaC}
  0.0085,                                 !- Zone Cooling Design Supply Air Humidity Ratio {kg-H2O/kg-air}
  0.008,                                  !- Zone Heating Design Supply Air Humidity Ratio {kg-H2O/kg-air}
  ,                                       !- Zone Heating Sizing Factor
  ,                                       !- Zone Cooling Sizing Factor
  DesignDay,                              !- Cooling Design Air Flow Method
  ,                                       !- Cooling Design Air Flow Rate {m3/s}
  ,                                       !- Cooling Minimum Air Flow per Zone Floor Area {m3/s-m2}
  ,                                       !- Cooling Minimum Air Flow {m3/s}
  ,                                       !- Cooling Minimum Air Flow Fraction
  DesignDay,                              !- Heating Design Air Flow Method
  ,                                       !- Heating Design Air Flow Rate {m3/s}
  ,                                       !- Heating Maximum Air Flow per Zone Floor Area {m3/s-m2}
  ,                                       !- Heating Maximum Air Flow {m3/s}
  ,                                       !- Heating Maximum Air Flow Fraction
  No,                                     !- Account for Dedicated Outdoor Air System
  NeutralSupplyAir,                       !- Dedicated Outdoor Air System Control Strategy
  autosize,                               !- Dedicated Outdoor Air Low Setpoint Temperature for Design {C}
  autosize,                               !- Dedicated Outdoor Air High Setpoint Temperature for Design {C}
  Sensible Load Only No Latent Load,      !- Zone Load Sizing Method
  HumidityRatioDifference,                !- Zone Latent Cooling Design Supply Air Humidity Ratio Input Method
  ,                                       !- Zone Dehumidification Design Supply Air Humidity Ratio {kgWater/kgDryAir}
  0.005,                                  !- Zone Cooling Design Supply Air Humidity Ratio Difference {kgWater/kgDryAir}
  HumidityRatioDifference,                !- Zone Latent Heating Design Supply Air Humidity Ratio Input Method
  ,                                       !- Zone Humidification Design Supply Air Humidity Ratio {kgWater/kgDryAir}
  0.005,                                  !- Zone Humidification Design Supply Air Humidity Ratio Difference {kgWater/kgDryAir}
  ,                                       !- Zone Humidistat Dehumidification Set Point Schedule Name
  ,                                       !- Zone Humidistat Humidification Set Point Schedule Name
  ,                                       !- Design Zone Air Distribution Effectiveness in Cooling Mode
  ,                                       !- Design Zone Air Distribution Effectiveness in Heating Mode
  ,                                       !- Design Zone Secondary Recirculation Fraction {dimensionless}
  ,                                       !- Design Minimum Zone Ventilation Efficiency {dimensionless}
  Coincident;                             !- Sizing Option

OS:ZoneHVAC:EquipmentList,
  {6d8f0569-7a94-4a19-bea0-1c38f36eddf5}, !- Handle
  Zone HVAC Equipment List 2,             !- Name
  {76d186e1-3c74-450f-9c40-02d6a80a96a9}; !- Thermal Zone

OS:AdditionalProperties,
  {c4de3ef3-496f-44eb-b0ae-6af443a3a956}, !- Handle
  {76d186e1-3c74-450f-9c40-02d6a80a96a9}, !- Object Name
  ObjectType,                             !- Feature Name 1
  String,                                 !- Feature Data Type 1
  attic - vented;                         !- Feature Value 1

OS:Space,
  {bed2a347-5a0f-4b93-a396-ebfa1d2b4d64}, !- Handle
  attic - vented 1,                       !- Name
  ,                                       !- Space Type Name
  ,                                       !- Default Construction Set Name
  ,                                       !- Default Schedule Set Name
  ,                                       !- Direction of Relative North {deg}
  ,                                       !- X Origin {m}
  ,                                       !- Y Origin {m}
  ,                                       !- Z Origin {m}
  ,                                       !- Building Story Name
  {76d186e1-3c74-450f-9c40-02d6a80a96a9}, !- Thermal Zone Name
  ,                                       !- Part of Total Floor Area
  ,                                       !- Design Specification Outdoor Air Object Name
  ,                                       !- Building Unit Name
  356.390921899745;                       !- Volume {m3}

OS:Material,
  {a5a7298e-ea41-4aee-81fb-0700177af91f}, !- Handle
  asphalt or fiberglass shingles,         !- Name