
OS:Version,
  {54c5d4f8-5ea3-467d-99d6-cf5eaaa716df}, !- Handle
  3.9.0;                                  !- Version Identifier

OS:SimulationControl,
  {30c92d4b-3b04-49e3-88d6-d658f79f5aba}, !- Handle
  ,                                       !- Do Zone Sizing Calculation
  ,                                       !- Do System Sizing Calculation
  ,                                       !- Do Plant Sizing Calculation
  No;                                     !- Run Simulation for Sizing Periods

OS:Timestep,
  {4add845d-f77c-480e-b1c2-045630cf1981}, !- Handle
  1;                                      !- Number of Timesteps per Hour

OS:ShadowCalculation,
  {c53185f3-f429-439e-9562-82ee4ca12f41}, !- Handle
  PolygonClipping,                        !- Shading Calculation Method
  ,                                       !- Shading Calculation Update Frequency Method
  20,                                     !- Shading Calculation Update Frequency
  200,                                    !- Maximum Figures in Shadow Overlap Calculations
  ,                                       !- Polygon Clipping Algorithm
  512,                                    !- Pixel Counting Resolution
  ,                                       !- Sky Diffuse Modeling Algorithm
  No,                                     !- Output External Shading Calculation Results
  No,                                     !- Disable Self-Shading Within Shading Zone Groups
  No;                                     !- Disable Self-Shading From Shading Zone Groups to Other Zones

OS:SurfaceConvectionAlgorithm:Outside,
  {f2bccfdc-7676-48f1-989d-a4ec3be778c8}, !- Handle
  DOE-2;                                  !- Algorithm

OS:SurfaceConvectionAlgorithm:Inside,
  {e12e9f23-0e36-47ae-a285-d045cd476bd6}, !- Handle
  TARP;                                   !- Algorithm

OS:ZoneCapacitanceMultiplier:ResearchSpecial,
  {1a86bba6-7bcc-4738-ada0-54de2ac707d4}, !- Handle
  7,                                      !- Temperature Capacity Multiplier
  15,                                     !- Humidity Capacity Multiplier
  ;                                       !- Carbon Dioxide Capacity Multiplier

OS:ConvergenceLimits,
  {e4dbdcb5-ee53-4ac4-b80d-bfc1c1aea58e}, !- Handle
  0;                                      !- Minimum System Timestep {minutes}

OS:RunPeriod,
  {54a25926-8e26-4fa7-a141-dfdfce8a0b31}, !- Handle
  Run Period 1,                           !- Name
  1,                                      !- Begin Month
  1,                                      !- Begin Day of Month
  12,                                     !- End Month
  31,                                     !- End Day of Month
  ,                                       !- Use Weather File Holidays and Special Days
  ,                                       !- Use Weather File Daylight Saving Period
  ,                                       !- Apply Weekend Holiday Rule
  ,                                       !- Use Weather File Rain Indicators
  ,                                       !- Use Weather File Snow Indicators
  ;                                       !- Number of Times Runperiod to be Repeated

OS:PerformancePrecisionTradeoffs,
  {aa02a8a3-5e38-4d7d-bdbb-bd1c27b12122}, !- Handle
  ,                                       !- Use Coil Direct Solutions
  CarrollMRT;                             !- Zone Radiant Exchange Algorithm

OS:WeatherFile,
  {5505b0e7-f800-4dbf-ab16-8484cd4e0346}, !- Handle
  Buffalo Niagara Intl Ap,                !- City
  NY,                                     !- State Province Region
  USA,                                    !- Country
  TMY3,                                   !- Data Source
  725280,                                 !- WMO Number
  42.93,                                  !- Latitude {deg}
  -78.73,                                 !- Longitude {deg}
  -5,                                     !- Time Zone {hr}
  215,                                    !- Elevation {m}
  /Users/nmoore/github/urbanopt-example-geojson-project/example_project/weather/USA_NY_Buffalo-Greater.Buffalo.Intl.AP.725280_TMY3.epw, !- Url
  6B50E0FF,                               !- Checksum
  ,                                       !- Start Date Actual Year
  Sunday;                                 !- Start Day of Week

OS:YearDescription,
  {49c11fa5-9881-493e-a288-35e2f38f1aa0}, !- Handle
  2007,                                   !- Calendar Year
  ,                                       !- Day of Week for Start Day
  ;                                       !- Is Leap Year

OS:Site,
  {11173ab7-54cd-47a1-862c-ae53c49bb210}, !- Handle
  Buffalo Niagara Intl Ap_NY,             !- Name
  42.93,                                  !- Latitude {deg}
  -78.73,                                 !- Longitude {deg}
  -5,                                     !- Time Zone {hr}
  215,                                    !- Elevation {m}
  Suburbs,                                !- Terrain
  Yes;                                    !- Keep Site Location Information

OS:RunPeriodControl:DaylightSavingTime,
  {d8bb279f-d1a4-4691-846d-c091d753f8a2}, !- Handle
  Mar 12,                                 !- Start Date
  Nov 5;                                  !- End Date

OS:Site:GroundTemperature:Shallow,
  {2e8bb816-f84e-4619-a801-84060519db78}, !- Handle
  4.30207395723828,                       !- January Surface Ground Temperature {C}
  2.29327249652502,                       !- February Surface Ground Temperature {C}
  2.13240047156047,                       !- March Surface Ground Temperature {C}
  3.08567940719286,                       !- April Surface Ground Temperature {C}
  6.91256312497526,                       !- May Surface Ground Temperature {C}
  10.7216195949507,                       !- June Surface Ground Temperature {C}
  14.0238679822574,                       !- July Surface Ground Temperature {C}
  16.1157611184724,                       !- August Surface Ground Temperature {C}
  16.2934789303462,                       !- September Surface Ground Temperature {C}
  14.5920754632847,                       !- October Surface Ground Temperature {C}
  11.374036348653,                        !- November Surface Ground Temperature {C}
  7.68182621661674;                       !- December Surface Ground Temperature {C}

OS:ThermalZone,
  {17e5754a-5f89-4682-8e59-de22d95bbb39}, !- Handle
  conditioned space,                      !- Name
  1,                                      !- Multiplier
  ,                                       !- Ceiling Height {m}
  692.06373070848,                        !- Volume {m3}
  ,                                       !- Floor Area {m2}
  ,                                       !- Zone Inside Convection Algorithm
  ,                                       !- Zone Outside Convection Algorithm
  ,                                       !- Zone Conditioning Equipment List Name
  {690069bc-99d0-4dce-805d-a37da6920b7e}, !- Zone Air Inlet Port List
  {8db1d589-6d11-4fe3-bbaf-e6c4b26b096f}, !- Zone Air Exhaust Port List
  {5366a353-dfa6-45d8-aee6-18ebfd9c1620}, !- Zone Air Node Name
  {5704e451-a33f-470e-a874-3a6a969d03d2}, !- Zone Return Air Port List
  ,                                       !- Primary Daylighting Control Name
  ,                                       !- Fraction of Zone Controlled by Primary Daylighting Control
  ,                                       !- Secondary Daylighting Control Name
  ,                                       !- Fraction of Zone Controlled by Secondary Daylighting Control
  ,                                       !- Illuminance Map Name
  ,                                       !- Group Rendering Name
  {41e9a220-191a-4235-8d7a-bd4f2a1bc757}, !- Thermostat Name
  No;                                     !- Use Ideal Air Loads

OS:Node,
  {09f7bc81-2184-4e5f-9134-b2aafc93efcd}, !- Handle
  Node 1,                                 !- Name
  {5366a353-dfa6-45d8-aee6-18ebfd9c1620}, !- Inlet Port
  ;                                       !- Outlet Port

OS:Connection,
  {5366a353-dfa6-45d8-aee6-18ebfd9c1620}, !- Handle
  {17e5754a-5f89-4682-8e59-de22d95bbb39}, !- Source Object
  11,                                     !- Outlet Port
  {09f7bc81-2184-4e5f-9134-b2aafc93efcd}, !- Target Object
  2;                                      !- Inlet Port

OS:PortList,
  {690069bc-99d0-4dce-805d-a37da6920b7e}, !- Handle
  {17e5754a-5f89-4682-8e59-de22d95bbb39}, !- HVAC Component
  {a9fc781c-7505-4292-8373-326e6f3d9ba7}; !- Port 1

OS:PortList,
  {8db1d589-6d11-4fe3-bbaf-e6c4b26b096f}, !- Handle
  {17e5754a-5f89-4682-8e59-de22d95bbb39}; !- HVAC Component

OS:PortList,
  {5704e451-a33f-470e-a874-3a6a969d03d2}, !- Handle
  {17e5754a-5f89-4682-8e59-de22d95bbb39}, !- HVAC Component
  {772d193a-37f4-4048-8bd4-aad3d3a9a71a}; !- Port 1

OS:Sizing:Zone,
  {997183e0-92af-45ac-85ce-a0c9fdd56493}, !- Handle
  {17e5754a-5f89-4682-8e59-de22d95bbb39}, !- Zone or ZoneList Name
  SupplyAirTemperature,                   !- Zone Cooling Design Supply Air Temperature Input Method
  14,                                     !- Zone Cooling Design Supply Air Temperature {C}
  11.11,                                  !- Zone Cooling Design Supply Air Temperature Difference {deltaC}
  SupplyAirTemperature,                   !- Zone Heating Design Supply Air Temperature Input Method
  40,                                     !- Zone Heating Design Supply Air Temperature {C}
  11.11,                                  !- Zone Heating Design Supply Air Temperature Difference {deltaC}
  0.0085,                                 !- Zone Cooling Design Supply Air Humidity Ratio {kg-H2O/kg-air}
  0.008,                                  !- Zone Heating Design Supply Air Humidity Ratio {kg-H2O/kg-air}
  ,                                       !- Zone Heating Sizing Factor
  ,                                       !- Zone Cooling Sizing Factor
  DesignDay,                              !- Cooling Design Air Flow Method
  ,                                       !- Cooling Design Air Flow Rate {m3/s}
  ,                                       !- Cooling Minimum Air Flow per Zone Floor Area {m3/s-m2}
  ,                                       !- Cooling Minimum Air Flow {m3/s}
  ,                                       !- Cooling Minimum Air Flow Fraction
  DesignDay,                              !- Heating Design Air Flow Method
  ,                                       !- Heating Design Air Flow Rate {m3/s}
  ,                                       !- Heating Maximum Air Flow per Zone Floor Area {m3/s-m2}
  ,                                       !- Heating Maximum Air Flow {m3/s}
  ,                                       !- Heating Maximum Air Flow Fraction
  No,                                     !- Account for Dedicated Outdoor Air System
  NeutralSupplyAir,                       !- Dedicated Outdoor Air System Control Strategy
  autosize,                               !- Dedicated Outdoor Air Low Setpoint Temperature for Design {C}
  autosize,                               !- Dedicated Outdoor Air High Setpoint Temperature for Design {C}
  Sensible Load Only No Latent Load,      !- Zone Load Sizing Method
  HumidityRatioDifference,                !- Zone Latent Cooling Design Supply Air Humidity Ratio Input Method
  ,                                       !- Zone Dehumidification Design Supply Air Humidity Ratio {kgWater/kgDryAir}
  0.005,                                  !- Zone Cooling Design Supply Air Humidity Ratio Difference {kgWater/kgDryAir}
  HumidityRatioDifference,                !- Zone Latent Heating Design Supply Air Humidity Ratio Input Method
  ,                                       !- Zone Humidification Design Supply Air Humidity Ratio {kgWater/kgDryAir}
  0.005,                                  !- Zone Humidification Design Supply Air Humidity Ratio Difference {kgWater/kgDryAir}
  ,                                       !- Zone Humidistat Dehumidification Set Point Schedule Name
  ,                                       !- Zone Humidistat Humidification Set Point Schedule Name
  ,                                       !- Design Zone Air Distribution Effectiveness in Cooling Mode
  ,                                       !- Design Zone Air Distribution Effectiveness in Heating Mode
  ,                                       !- Design Zone Secondary Recirculation Fraction {dimensionless}
  ,                                       !- Design Minimum Zone Ventilation Efficiency {dimensionless}
  Coincident;                             !- Sizing Option

OS:ZoneHVAC:EquipmentList,
  {bea7da12-5310-4699-98e9-d71136e432d7}, !- Handle
  Zone HVAC Equipment List 1,             !- Name
  {17e5754a-5f89-4682-8e59-de22d95bbb39}, !- Thermal Zone
  ,                                       !- Load Distribution Scheme
  {a3b2ed8c-05d6-4fe9-b2f1-7ddbca37ed22}, !- Zone Equipment 1
  1,                                      !- Zone Equipment Cooling Sequence 1
  1,                                      !- Zone Equipment Heating or No-Load Sequence 1
  {2d691715-8286-4ff0-8754-cc82f0030765}, !- Zone Equipment Sequential Cooling Fraction Schedule Name 1
  {217b9a22-f3b9-48ee-b963-1255952d5eec}; !- Zone Equipment Sequential Heating Fraction Schedule Name 1

OS:AdditionalProperties,
  {9dd0b4c2-99e5-4db5-a1e8-5d607790784d}, !- Handle
  {17e5754a-5f89-4682-8e59-de22d95bbb39}, !- Object Name
  ObjectType,                             !- Feature Name 1
  String,                                 !- Feature Data Type 1
  conditioned space;                      !- Feature Value 1

OS:Space,
  {a79aff05-a34b-48a4-90d2-c9a94e6547f7}, !- Handle
  conditioned space 1,                    !- Name
  ,                                       !- Space Type Name
  ,                                       !- Default Construction Set Name
  ,                                       !- Default Schedule Set Name
  ,                                       !- Direction of Relative North {deg}
  ,                                       !- X Origin {m}
  ,                                       !- Y Origin {m}
  ,                                       !- Z Origin {m}
  ,                                       !- Building Story Name
  {17e5754a-5f89-4682-8e59-de22d95bbb39}, !- Thermal Zone Name
  ,                                       !- Part of Total Floor Area
  ,                                       !- Design Specification Outdoor Air Object Name
  ,                                       !- Building Unit Name
  692.06373070848;                        !- Volume {m3}

OS:Schedule:Ruleset,
  {677ce969-0a2b-4e7c-9c1d-3fc1fd02f5f1}, !- Handle
  heating setpoint,                       !- Name
  {1e2de0c0-8b7b-41dd-93d8-b54e028dd3cb}, !- Schedule Type Limits Name
  {bad92e1e-42b8-432e-a97d-574cf798ff42}; !- Default Day Schedule Name

OS:Schedule:Day,
  {bad92e1e-42b8-432e-a97d-574cf798ff42}, !- Handle
  heating setpoint default day,           !- Name
  {1e2de0c0-8b7b-41dd-93d8-b54e028dd3cb}, !- Schedule Type Limits Name
  ,                                       !- Interpolate to Timestep
  24,                                     !- Hour 1
  0,                                      !- Minute 1
  0;                                      !- Value Until Time 1

OS:Schedule:Rule,
  {268f7943-652b-488c-8443-328509cf877d}, !- Handle
  heating setpoint allday rule,           !- Name
  {677ce969-0a2b-4e7c-9c1d-3fc1fd02f5f1}, !- Schedule Ruleset Name
  0,                                      !- Rule Order
  {cb2d1431-7ccc-40bd-abf3-ed1952faa0ae}, !- Day Schedule Name
  Yes,                                    !- Apply Sunday
  Yes,                                    !- Apply Monday
  Yes,                                    !- Apply Tuesday
  Yes,                                    !- Apply Wednesday
  Yes,                                    !- Apply Thursday
  Yes,                                    !- Apply Friday
  Yes,                                    !- Apply Saturday
  DateRange,                              !- Date Specification Type
  1,                                      !- Start Month
  1,                                      !- Start Day
  12,                                     !- End Month
  31;                                     !- End Day

OS:Schedule:Day,
  {cb2d1431-7ccc-40bd-abf3-ed1952faa0ae}, !- Handle
  heating setpoint day,                   !- Name
  {1e2de0c0-8b7b-41dd-93d8-b54e028dd3cb}, !- Schedule Type Limits Name
  ,                                       !- Interpolate to Timestep
  24,                                     !- Hour 1
  0,                                      !- Minute 1
  20;                                     !- Value Until Time 1

OS:Schedule:Ruleset,
  {9929cbb5-0e56-4b17-a4a0-e66ce5686cba}, !- Handle
  cooling setpoint,                       !- Name
  {1e2de0c0-8b7b-41dd-93d8-b54e028dd3cb}, !- Schedule Type Limits Name
  {bf774d6b-856f-47f4-bc2c-74d5697bbf94}; !- Default Day Schedule Name

OS:Schedule:Day,
  {bf774d6b-856f-47f4-bc2c-74d5697bbf94}, !- Handle
  cooling setpoint default day,           !- Name
  {1e2de0c0-8b7b-41dd-93d8-b54e028dd3cb}, !- Schedule Type Limits Name
  ,                                       !- Interpolate to Timestep
  24,                                     !- Hour 1
  0,                                      !- Minute 1
  0;                                      !- Value Until Time 1

OS:Schedule:Rule,
  {8b6d4d32-e3e8-430b-b5c9-86b5b28c52bc}, !- Handle
  cooling setpoint allday rule,           !- Name
  {9929cbb5-0e56-4b17-a4a0-e66ce5686cba}, !- Schedule Ruleset Name
  0,                                      !- Rule Order
  {b3da660e-3952-48bd-8373-bd3347c3a319}, !- Day Schedule Name
  Yes,                                    !- Apply Sunday
  Yes,                                    !- Apply Monday
  Yes,                                    !- Apply Tuesday
  Yes,                                    !- Apply Wednesday
  Yes,                                    !- Apply Thursday
  Yes,                                    !- Apply Friday
  Yes,                                    !- Apply Saturday
  DateRange,                              !- Date Specification Type
  1,                                      !- Start Month
  1,                                      !- Start Day
  12,                                     !- End Month
  31;                                     !- End Day

OS:Schedule:Day,
  {b3da660e-3952-48bd-8373-bd3347c3a319}, !- Handle
  cooling setpoint day,                   !- Name
  {1e2de0c0-8b7b-41dd-93d8-b54e028dd3cb}, !- Schedule Type Limits Name
  ,                                       !- Interpolate to Timestep
  24,                                     !- Hour 1
  0,                                      !- Minute 1
  25.5555555555556;                       !- Value Until Time 1

OS:ThermostatSetpoint:DualSetpoint,
  {41e9a220-191a-4235-8d7a-bd4f2a1bc757}, !- Handle
  conditioned space temperature setpoint, !- Name
  {677ce969-0a2b-4e7c-9c1d-3fc1fd02f5f1}, !- Heating Setpoint Temperature Schedule Name
  {9929cbb5-0e56-4b17-a4a0-e66ce5686cba}, !- Cooling Setpoint Temperature Schedule Name
  0;                                      !- Temperature Difference Between Cutout And Setpoint {deltaC}

OS:ScheduleTypeLimits,
  {1e2de0c0-8b7b-41dd-93d8-b54e028dd3cb}, !- Handle
  Temperature,                            !- Name
  ,                                       !- Lower Limit Value
  ,                                       !- Upper Limit Value
  Continuous,                             !- Numeric Type
  Temperature;                            !- Unit Type

OS:Surface,
  {8547a5f5-6b88-4d8b-b857-3fe8128f2a7b}, !- Handle
  Roof1,                                  !- Name
  RoofCeiling,                            !- Surface Type
  {0f8a3a95-947f-4d0c-ba93-4b9f46698710}, !- Construction Name
  {4197ecd4-4bf3-4b78-a18f-a84331b696a3}, !- Space Name
  Outdoors,                               !- Outside Boundary Condition
  ,                                       !- Outside Boundary Condition Object
  SunExposed,                             !- Sun Exposure
  WindExposed,                            !- Wind Exposure
  ,                                       !- View Factor to Ground
  ,                                       !- Number of Vertices
  -26.9347048849634, 58.0557891618865, 2.4384, !- X,Y,Z Vertex 1 {m}
  -26.9347048849634, 46.7895631136661, 8.0715130241102, !- X,Y,Z Vertex 2 {m}
  -14.3386812381136, 46.7895631136661, 8.0715130241102, !- X,Y,Z Vertex 3 {m}
  -14.3386812381136, 58.0557891618865, 2.4384; !- X,Y,Z Vertex 4 {m}

OS:AdditionalProperties,
  {dca86052-0bdf-412d-905b-d6d454abf9ad}, !- Handle
  {8547a5f5-6b88-4d8b-b857-3fe8128f2a7b}, !- Object Name
  Length,                                 !- Feature Name 1
  Double,                                 !- Feature Data Type 1
  41.325536899113608,                     !- Feature Value 1
  Width,                                  !- Feature Name 2
  Double,                                 !- Feature Data Type 2
  41.325536899113601,                     !- Feature Value 2
  Azimuth,                                !- Feature Name 3
  Integer,                                !- Feature Data Type 3
  0,                                      !- Feature Value 3
  Tilt,                                   !- Feature Name 4
  Double,                                 !- Feature Data Type 4
  0.5,                                    !- Feature Value 4
  SurfaceType,                            !- Feature Name 5
  String,                                 !- Feature Data Type 5
  Roof;                                   !- Feature Value 5

OS:ThermalZone,
  {79d5156d-6848-4c6d-9616-dd00f6b8e881}, !- Handle
  attic - vented,                         !- Name
  1,                                      !- Multiplier
  ,                                       !- Ceiling Height {m}
  356.389957095237,                       !- Volume {m3}
  ,                                       !- Floor Area {m2}
  ,                                       !- Zone Inside Convection Algorithm
  ,                                       !- Zone Outside Convection Algorithm
  ,                                       !- Zone Conditioning Equipment List Name
  {6a0c4f62-64f8-4929-8550-92f18755ca4d}, !- Zone Air Inlet Port List
  {3a5a5e8c-3d91-431a-a049-70af686e941e}, !- Zone Air Exhaust Port List
  {f69300a1-1a1b-4c36-a843-f6250c6b542f}, !- Zone Air Node Name
  {2271e350-52d0-4368-ba39-9d32e724e777}, !- Zone Return Air Port List
  ,                                       !- Primary Daylighting Control Name
  ,                                       !- Fraction of Zone Controlled by Primary Daylighting Control
  ,                                       !- Secondary Daylighting Control Name
  ,                                       !- Fraction of Zone Controlled by Secondary Daylighting Control
  ,                                       !- Illuminance Map Name
  ,                                       !- Group Rendering Name
  ,                                       !- Thermostat Name
  No;                                     !- Use Ideal Air Loads

OS:Node,
  {76e8ccd0-8a01-4a88-b492-0acea0d5af4a}, !- Handle
  Node 2,                                 !- Name
  {f69300a1-1a1b-4c36-a843-f6250c6b542f}, !- Inlet Port
  ;                                       !- Outlet Port

OS:Connection,
  {f69300a1-1a1b-4c36-a843-f6250c6b542f}, !- Handle
  {79d5156d-6848-4c6d-9616-dd00f6b8e881}, !- Source Object
  11,                                     !- Outlet Port
  {76e8ccd0-8a01-4a88-b492-0acea0d5af4a}, !- Target Object
  2;                                      !- Inlet Port

OS:PortList,
  {6a0c4f62-64f8-4929-8550-92f18755ca4d}, !- Handle
  {79d5156d-6848-4c6d-9616-dd00f6b8e881}; !- HVAC Component

OS:PortList,
  {3a5a5e8c-3d91-431a-a049-70af686e941e}, !- Handle
  {79d5156d-6848-4c6d-9616-dd00f6b8e881}; !- HVAC Component

OS:PortList,
  {2271e350-52d0-4368-ba39-9d32e724e777}, !- Handle
  {79d5156d-6848-4c6d-9616-dd00f6b8e881}; !- HVAC Component

OS:Sizing:Zone,
  {2aa3cd09-f8cf-46af-a951-a9165831e39c}, !- Handle
  {79d5156d-6848-4c6d-9616-dd00f6b8e881}, !- Zone or ZoneList Name
  SupplyAirTemperature,                   !- Zone Cooling Design Supply Air Temperature Input Method
  14,                                     !- Zone Cooling Design Supply Air Temperature {C}
  11.11,                                  !- Zone Cooling Design Supply Air Temperature Difference {deltaC}
  SupplyAirTemperature,                   !- Zone Heating Design Supply Air Temperature Input Method
  40,                                     !- Zone Heating Design Supply Air Temperature {C}
  11.11,                                  !- Zone Heating Design Supply Air Temperature Difference {deltaC}
  0.0085,                                 !- Zone Cooling Design Supply Air Humidity Ratio {kg-H2O/kg-air}
  0.008,                                  !- Zone Heating Design Supply Air Humidity Ratio {kg-H2O/kg-air}
  ,                                       !- Zone Heating Sizing Factor
  ,                                       !- Zone Cooling Sizing Factor
  DesignDay,                              !- Cooling Design Air Flow Method
  ,                                       !- Cooling Design Air Flow Rate {m3/s}
  ,                                       !- Cooling Minimum Air Flow per Zone Floor Area {m3/s-m2}
  ,                                       !- Cooling Minimum Air Flow {m3/s}
  ,                                       !- Cooling Minimum Air Flow Fraction
  DesignDay,                              !- Heating Design Air Flow Method
  ,                                       !- Heating Design Air Flow Rate {m3/s}
  ,                                       !- Heating Maximum Air Flow per Zone Floor Area {m3/s-m2}
  ,                                       !- Heating Maximum Air Flow {m3/s}
  ,                                       !- Heating Maximum Air Flow Fraction
  No,                                     !- Account for Dedicated Outdoor Air System
  NeutralSupplyAir,                       !- Dedicated Outdoor Air System Control Strategy
  autosize,                               !- Dedicated Outdoor Air Low Setpoint Temperature for Design {C}
  autosize,                               !- Dedicated Outdoor Air High Setpoint Temperature for Design {C}
  Sensible Load Only No Latent Load,      !- Zone Load Sizing Method
  HumidityRatioDifference,                !- Zone Latent Cooling Design Supply Air Humidity Ratio Input Method
  ,                                       !- Zone Dehumidification Design Supply Air Humidity Ratio {kgWater/kgDryAir}
  0.005,                                  !- Zone Cooling Design Supply Air Humidity Ratio Difference {kgWater/kgDryAir}
  HumidityRatioDifference,                !- Zone Latent Heating Design Supply Air Humidity Ratio Input Method
  ,                                       !- Zone Humidification Design Supply Air Humidity Ratio {kgWater/kgDryAir}
  0.005,                                  !- Zone Humidification Design Supply Air Humidity Ratio Difference {kgWater/kgDryAir}
  ,                                       !- Zone Humidistat Dehumidification Set Point Schedule Name
  ,                                       !- Zone Humidistat Humidification Set Point Schedule Name
  ,                                       !- Design Zone Air Distribution Effectiveness in Cooling Mode
  ,                                       !- Design Zone Air Distribution Effectiveness in Heating Mode
  ,                                       !- Design Zone Secondary Recirculation Fraction {dimensionless}
  ,                                       !- Design Minimum Zone Ventilation Efficiency {dimensionless}
  Coincident;                             !- Sizing Option

OS:ZoneHVAC:EquipmentList,
  {e1b788ca-5c86-4a9b-9902-5b32bf58eea0}, !- Handle
  Zone HVAC Equipment List 2,             !- Name
  {79d5156d-6848-4c6d-9616-dd00f6b8e881}; !- Thermal Zone

OS:AdditionalProperties,
  {03b4f0c7-2e67-4fbd-90ca-ac70eea50866}, !- Handle
  {79d5156d-6848-4c6d-9616-dd00f6b8e881}, !- Object Name
  ObjectType,                             !- Feature Name 1
  String,                                 !- Feature Data Type 1
  attic - vented;                         !- Feature Value 1

OS:Space,
  {4197ecd4-4bf3-4b78-a18f-a84331b696a3}, !- Handle
  attic - vented 1,                       !- Name
  ,                                       !- Space Type Name
  ,                                       !- Default Construction Set Name
  ,                                       !- Default Schedule Set Name
  ,                                       !- Direction of Relative North {deg}
  ,                                       !- X Origin {m}
  ,                                       !- Y Origin {m}
  ,                                       !- Z Origin {m}
  ,                                       !- Building Story Name
  {79d5156d-6848-4c6d-9616-dd00f6b8e881}, !- Thermal Zone Name
  ,                                       !- Part of Total Floor Area
  ,                                       !- Design Specification Outdoor Air Object Name
  ,                                       !- Building Unit Name
  356.389957095237;                       !- Volume {m3}

OS:Material,
  {ed88a066-3fad-40de-9d14-f97df97844b6}, !- Handle
  asphalt or fiberglass shingles,         !- Name
  Rough,                                  !- Roughness
  0.00635,                                !- Thickness {m}
  0.162714,                               !- Conductivity {W/m-K}
  1121.4,                                 !- Density {kg/m3}
  1465.45,                                !- Specific Heat {J/kg-K}
  0.9,                                    !- Thermal Absorptance
  0.85,                                   !- Solar Absorptance