
OS:Version,
  {fd431a66-c245-4474-83a2-a0e73f6b278f}, !- Handle
  3.10.0;                                 !- Version Identifier

OS:SimulationControl,
  {522953cc-4c64-4560-b653-3c758ffd6ec1}, !- Handle
  ,                                       !- Do Zone Sizing Calculation
  ,                                       !- Do System Sizing Calculation
  ,                                       !- Do Plant Sizing Calculation
  No;                                     !- Run Simulation for Sizing Periods

OS:Timestep,
  {56a6a3fb-ac65-40df-8404-e1fa68e7e0ab}, !- Handle
  1;                                      !- Number of Timesteps per Hour

OS:ShadowCalculation,
  {ce591307-7310-47ea-b353-44fd94470f1f}, !- Handle
  PolygonClipping,                        !- Shading Calculation Method
  ,                                       !- Shading Calculation Update Frequency Method
  20,                                     !- Shading Calculation Update Frequency
  200,                                    !- Maximum Figures in Shadow Overlap Calculations
  ,                                       !- Polygon Clipping Algorithm
  512,                                    !- Pixel Counting Resolution
  ,                                       !- Sky Diffuse Modeling Algorithm
  No,                                     !- Output External Shading Calculation Results
  No,                                     !- Disable Self-Shading Within Shading Zone Groups
  No;                                     !- Disable Self-Shading From Shading Zone Groups to Other Zones

OS:SurfaceConvectionAlgorithm:Outside,
  {b0adfdc9-a6c1-45c8-94db-385e86df7153}, !- Handle
  DOE-2;                                  !- Algorithm

OS:SurfaceConvectionAlgorithm:Inside,
  {e18262e9-a2de-4914-bc1e-f0de66ef2506}, !- Handle
  TARP;                                   !- Algorithm

OS:ZoneCapacitanceMultiplier:ResearchSpecial,
  {b7c12102-8064-4799-955c-762d65d9bd97}, !- Handle
  7,                                      !- Temperature Capacity Multiplier
  15,                                     !- Humidity Capacity Multiplier
  ;                                       !- Carbon Dioxide Capacity Multiplier

OS:ConvergenceLimits,
  {0682ffcf-3311-46da-8e38-d1404b9808ab}, !- Handle
  0;                                      !- Minimum System Timestep {minutes}

OS:RunPeriod,
  {f7bfc51b-8afc-494a-bebc-923cfac265c3}, !- Handle
  Run Period 1,                           !- Name
  1,                                      !- Begin Month
  1,                                      !- Begin Day of Month
  12,                                     !- End Month
  31,                                     !- End Day of Month
  ,                                       !- Use Weather File Holidays and Special Days
  ,                                       !- Use Weather File Daylight Saving Period
  ,                                       !- Apply Weekend Holiday Rule
  ,                                       !- Use Weather File Rain Indicators
  ,                                       !- Use Weather File Snow Indicators
  ;                                       !- Number of Times Runperiod to be Repeated

OS:PerformancePrecisionTradeoffs,
  {603e407b-4539-4c1a-b402-8787e28f89fb}, !- Handle
  ,                                       !- Use Coil Direct Solutions
  CarrollMRT;                             !- Zone Radiant Exchange Algorithm

OS:WeatherFile,
  {354da36c-b071-42a9-ab2e-1a0437d59a60}, !- Handle
  Buffalo Niagara Intl Ap,                !- City
  NY,                                     !- State Province Region
  USA,                                    !- Country
  TMY3,                                   !- Data Source
  725280,                                 !- WMO Number
  42.93,                                  !- Latitude {deg}
  -78.73,                                 !- Longitude {deg}
  -5,                                     !- Time Zone {hr}
  215,                                    !- Elevation {m}
  /Users/nmoore/github/urbanopt-example-geojson-project/example_project/weather/USA_NY_Buffalo-Greater.Buffalo.Intl.AP.725280_TMY3.epw, !- Url
  6B50E0FF,                               !- Checksum
  ,                                       !- Start Date Actual Year
  Sunday;                                 !- Start Day of Week

OS:YearDescription,
  {31096415-7446-47cf-a843-f6bbc5d81987}, !- Handle
  2007,                                   !- Calendar Year
  ,                                       !- Day of Week for Start Day
  ;                                       !- Is Leap Year

OS:Site,
  {e099163b-8ec4-4083-bdab-91252bb39c55}, !- Handle
  Buffalo Niagara Intl Ap_NY,             !- Name
  42.93,                                  !- Latitude {deg}
  -78.73,                                 !- Longitude {deg}
  -5,                                     !- Time Zone {hr}
  215,                                    !- Elevation {m}
  Suburbs,                                !- Terrain
  Yes;                                    !- Keep Site Location Information

OS:RunPeriodControl:DaylightSavingTime,
  {c5475bec-7c97-41ae-a5ab-adb8d732d5ec}, !- Handle
  Mar 12,                                 !- Start Date
  Nov 5;                                  !- End Date

OS:Site:GroundTemperature:Shallow,
  {5c8508a5-3177-4998-944b-fea7b11f7d43}, !- Handle
  4.30207395723828,                       !- January Surface Ground Temperature {C}
  2.29327249652502,                       !- February Surface Ground Temperature {C}
  2.13240047156047,                       !- March Surface Ground Temperature {C}
  3.08567940719286,                       !- April Surface Ground Temperature {C}
  6.91256312497526,                       !- May Surface Ground Temperature {C}
  10.7216195949507,                       !- June Surface Ground Temperature {C}
  14.0238679822574,                       !- July Surface Ground Temperature {C}
  16.1157611184724,                       !- August Surface Ground Temperature {C}
  16.2934789303462,                       !- September Surface Ground Temperature {C}
  14.5920754632847,                       !- October Surface Ground Temperature {C}
  11.374036348653,                        !- November Surface Ground Temperature {C}
  7.68182621661674;                       !- December Surface Ground Temperature {C}

OS:ThermalZone,
  {117f13ed-851d-4520-97c2-3687c68a3106}, !- Handle
  conditioned space,                      !- Name
  1,                                      !- Multiplier
  ,                                       !- Ceiling Height {m}
  692.06373070848,                        !- Volume {m3}
  ,                                       !- Floor Area {m2}
  ,                                       !- Zone Inside Convection Algorithm
  ,                                       !- Zone Outside Convection Algorithm
  ,                                       !- Zone Conditioning Equipment List Name
  {f1d7fa58-3c23-44da-83a6-a51185ae9611}, !- Zone Air Inlet Port List
  {9ea27615-21f0-4d81-a97a-71426f4a78ee}, !- Zone Air Exhaust Port List
  {d6ba4396-dfe6-4bb9-9bdd-64e49bdad3c8}, !- Zone Air Node Name
  {da58781a-8223-4c3e-81a9-12b228a1e823}, !- Zone Return Air Port List
  ,                                       !- Primary Daylighting Control Name
  ,                                       !- Fraction of Zone Controlled by Primary Daylighting Control
  ,                                       !- Secondary Daylighting Control Name
  ,                                       !- Fraction of Zone Controlled by Secondary Daylighting Control
  ,                                       !- Illuminance Map Name
  ,                                       !- Group Rendering Name
  {edc1d190-a79f-47a0-ad21-e80dd3e00714}, !- Thermostat Name
  No;                                     !- Use Ideal Air Loads

OS:Node,
  {06e344c8-d948-4f31-8586-b5468415fa95}, !- Handle
  Node 1,                                 !- Name
  {d6ba4396-dfe6-4bb9-9bdd-64e49bdad3c8}, !- Inlet Port
  ;                                       !- Outlet Port

OS:Connection,
  {d6ba4396-dfe6-4bb9-9bdd-64e49bdad3c8}, !- Handle
  {117f13ed-851d-4520-97c2-3687c68a3106}, !- Source Object
  11,                                     !- Outlet Port
  {06e344c8-d948-4f31-8586-b5468415fa95}, !- Target Object
  2;                                      !- Inlet Port

OS:PortList,
  {f1d7fa58-3c23-44da-83a6-a51185ae9611}, !- Handle
  {117f13ed-851d-4520-97c2-3687c68a3106}, !- HVAC Component
  {c50b84d9-993c-4c9f-b325-99590b5b34e8}; !- Port 1

OS:PortList,
  {9ea27615-21f0-4d81-a97a-71426f4a78ee}, !- Handle
  {117f13ed-851d-4520-97c2-3687c68a3106}; !- HVAC Component

OS:PortList,
  {da58781a-8223-4c3e-81a9-12b228a1e823}, !- Handle
  {117f13ed-851d-4520-97c2-3687c68a3106}, !- HVAC Component
  {93c53f4f-b567-4337-83d5-5d07dcadb19e}; !- Port 1

OS:Sizing:Zone,
  {64ecda47-59d1-474c-bea9-31d0900c97ba}, !- Handle
  {117f13ed-851d-4520-97c2-3687c68a3106}, !- Zone or ZoneList Name
  SupplyAirTemperature,                   !- Zone Cooling Design Supply Air Temperature Input Method
  14,                                     !- Zone Cooling Design Supply Air Temperature {C}
  11.11,                                  !- Zone Cooling Design Supply Air Temperature Difference {deltaC}
  SupplyAirTemperature,                   !- Zone Heating Design Supply Air Temperature Input Method
  40,                                     !- Zone Heating Design Supply Air Temperature {C}
  11.11,                                  !- Zone Heating Design Supply Air Temperature Difference {deltaC}
  0.0085,                                 !- Zone Cooling Design Supply Air Humidity Ratio {kg-H2O/kg-air}
  0.008,                                  !- Zone Heating Design Supply Air Humidity Ratio {kg-H2O/kg-air}
  ,                                       !- Zone Heating Sizing Factor
  ,                                       !- Zone Cooling Sizing Factor
  DesignDay,                              !- Cooling Design Air Flow Method
  ,                                       !- Cooling Design Air Flow Rate {m3/s}
  ,                                       !- Cooling Minimum Air Flow per Zone Floor Area {m3/s-m2}
  ,                                       !- Cooling Minimum Air Flow {m3/s}
  ,                                       !- Cooling Minimum Air Flow Fraction
  DesignDay,                              !- Heating Design Air Flow Method
  ,                                       !- Heating Design Air Flow Rate {m3/s}
  ,                                       !- Heating Maximum Air Flow per Zone Floor Area {m3/s-m2}
  ,                                       !- Heating Maximum Air Flow {m3/s}
  ,                                       !- Heating Maximum Air Flow Fraction
  No,                                     !- Account for Dedicated Outdoor Air System
  NeutralSupplyAir,                       !- Dedicated Outdoor Air System Control Strategy
  autosize,                               !- Dedicated Outdoor Air Low Setpoint Temperature for Design {C}
  autosize,                               !- Dedicated Outdoor Air High Setpoint Temperature for Design {C}
  Sensible Load Only No Latent Load,      !- Zone Load Sizing Method
  HumidityRatioDifference,                !- Zone Latent Cooling Design Supply Air Humidity Ratio Input Method
  ,                                       !- Zone Dehumidification Design Supply Air Humidity Ratio {kgWater/kgDryAir}
  0.005,                                  !- Zone Cooling Design Supply Air Humidity Ratio Difference {kgWater/kgDryAir}
  HumidityRatioDifference,                !- Zone Latent Heating Design Supply Air Humidity Ratio Input Method
  ,                                       !- Zone Humidification Design Supply Air Humidity Ratio {kgWater/kgDryAir}
  0.005,                                  !- Zone Humidification Design Supply Air Humidity Ratio Difference {kgWater/kgDryAir}
  ,                                       !- Zone Humidistat Dehumidification Set Point Schedule Name
  ,                                       !- Zone Humidistat Humidification Set Point Schedule Name
  ,                                       !- Design Zone Air Distribution Effectiveness in Cooling Mode
  ,                                       !- Design Zone Air Distribution Effectiveness in Heating Mode
  ,                                       !- Design Zone Secondary Recirculation Fraction {dimensionless}
  ,                                       !- Design Minimum Zone Ventilation Efficiency {dimensionless}
  Coincident;                             !- Sizing Option

OS:ZoneHVAC:EquipmentList,
  {812abf40-e840-43b4-85da-73e464d1bc60}, !- Handle
  Zone HVAC Equipment List 1,             !- Name
  {117f13ed-851d-4520-97c2-3687c68a3106}, !- Thermal Zone
  ,                                       !- Load Distribution Scheme
  {cfd8762f-e031-467d-af99-a02a7d0baf40}, !- Zone Equipment 1
  1,                                      !- Zone Equipment Cooling Sequence 1
  1,                                      !- Zone Equipment Heating or No-Load Sequence 1
  {155a53d4-06aa-45c7-8c28-73cc5539b775}, !- Zone Equipment Sequential Cooling Fraction Schedule Name 1
  {1d0b1ab8-8d5f-40aa-9010-5c09388094a0}; !- Zone Equipment Sequential Heating Fraction Schedule Name 1

OS:AdditionalProperties,
  {ea0461e6-e652-467c-8499-6fd7788fcdc6}, !- Handle
  {117f13ed-851d-4520-97c2-3687c68a3106}, !- Object Name
  ObjectType,                             !- Feature Name 1
  String,                                 !- Feature Data Type 1
  conditioned space;                      !- Feature Value 1

OS:Space,
  {5d6dbf63-6c25-47a3-9028-71e31931f602}, !- Handle
  conditioned space 1,                    !- Name
  ,                                       !- Space Type Name
  ,                                       !- Default Construction Set Name
  ,                                       !- Default Schedule Set Name
  ,                                       !- Direction of Relative North {deg}
  ,                                       !- X Origin {m}
  ,                                       !- Y Origin {m}
  ,                                       !- Z Origin {m}
  ,                                       !- Building Story Name
  {117f13ed-851d-4520-97c2-3687c68a3106}, !- Thermal Zone Name
  ,                                       !- Part of Total Floor Area
  ,                                       !- Design Specification Outdoor Air Object Name
  ,                                       !- Building Unit Name
  692.06373070848;                        !- Volume {m3}

OS:Schedule:Ruleset,
  {84727a7f-390f-4995-89f4-546f7a204356}, !- Handle
  heating setpoint,                       !- Name
  {af69d058-aa74-4303-8c2f-4b8bbd463065}, !- Schedule Type Limits Name
  {ebe1846c-ac02-4ffc-9198-2ee50272bb20}; !- Default Day Schedule Name

OS:Schedule:Day,
  {ebe1846c-ac02-4ffc-9198-2ee50272bb20}, !- Handle
  heating setpoint default day,           !- Name
  {af69d058-aa74-4303-8c2f-4b8bbd463065}, !- Schedule Type Limits Name
  ,                                       !- Interpolate to Timestep
  24,                                     !- Hour 1
  0,                                      !- Minute 1
  0;                                      !- Value Until Time 1

OS:Schedule:Rule,
  {749205e0-124b-401c-8f1c-3a4df6522eb5}, !- Handle
  heating setpoint allday rule,           !- Name
  {84727a7f-390f-4995-89f4-546f7a204356}, !- Schedule Ruleset Name
  0,                                      !- Rule Order
  {1f37b776-cc52-4846-9997-9abc36457a72}, !- Day Schedule Name
  Yes,                                    !- Apply Sunday
  Yes,                                    !- Apply Monday
  Yes,                                    !- Apply Tuesday
  Yes,                                    !- Apply Wednesday
  Yes,                                    !- Apply Thursday
  Yes,                                    !- Apply Friday
  Yes,                                    !- Apply Saturday
  DateRange,                              !- Date Specification Type
  1,                                      !- Start Month
  1,                                      !- Start Day
  12,                                     !- End Month
  31;                                     !- End Day

OS:Schedule:Day,
  {1f37b776-cc52-4846-9997-9abc36457a72}, !- Handle
  heating setpoint day,                   !- Name
  {af69d058-aa74-4303-8c2f-4b8bbd463065}, !- Schedule Type Limits Name
  ,                                       !- Interpolate to Timestep
  24,                                     !- Hour 1
  0,                                      !- Minute 1
  20;                                     !- Value Until Time 1

OS:Schedule:Ruleset,
  {738ba1fc-389c-431e-aae0-ddb3b430be39}, !- Handle
  cooling setpoint,                       !- Name
  {af69d058-aa74-4303-8c2f-4b8bbd463065}, !- Schedule Type Limits Name
  {b3e3811f-ab71-4815-b697-7fce125a5b6b}; !- Default Day Schedule Name

OS:Schedule:Day,
  {b3e3811f-ab71-4815-b697-7fce125a5b6b}, !- Handle
  cooling setpoint default day,           !- Name
  {af69d058-aa74-4303-8c2f-4b8bbd463065}, !- Schedule Type Limits Name
  ,                                       !- Interpolate to Timestep
  24,                                     !- Hour 1
  0,                                      !- Minute 1
  0;                                      !- Value Until Time 1

OS:Schedule:Rule,
  {68ebba37-00e7-482b-b06f-a5dc32cb9646}, !- Handle
  cooling setpoint allday rule,           !- Name
  {738ba1fc-389c-431e-aae0-ddb3b430be39}, !- Schedule Ruleset Name
  0,                                      !- Rule Order
  {c2ec4336-6cae-4a2e-8ee7-f8cdef92a36d}, !- Day Schedule Name
  Yes,                                    !- Apply Sunday
  Yes,                                    !- Apply Monday
  Yes,                                    !- Apply Tuesday
  Yes,                                    !- Apply Wednesday
  Yes,                                    !- Apply Thursday
  Yes,                                    !- Apply Friday
  Yes,                                    !- Apply Saturday
  DateRange,                              !- Date Specification Type
  1,                                      !- Start Month
  1,                                      !- Start Day
  12,                                     !- End Month
  31;                                     !- End Day

OS:Schedule:Day,
  {c2ec4336-6cae-4a2e-8ee7-f8cdef92a36d}, !- Handle
  cooling setpoint day,                   !- Name
  {af69d058-aa74-4303-8c2f-4b8bbd463065}, !- Schedule Type Limits Name
  ,                                       !- Interpolate to Timestep
  24,                                     !- Hour 1
  0,                                      !- Minute 1
  25.5555555555556;                       !- Value Until Time 1

OS:ThermostatSetpoint:DualSetpoint,
  {edc1d190-a79f-47a0-ad21-e80dd3e00714}, !- Handle
  conditioned space temperature setpoint, !- Name
  {84727a7f-390f-4995-89f4-546f7a204356}, !- Heating Setpoint Temperature Schedule Name
  {738ba1fc-389c-431e-aae0-ddb3b430be39}, !- Cooling Setpoint Temperature Schedule Name
  0;                                      !- Temperature Difference Between Cutout And Setpoint {deltaC}

OS:ScheduleTypeLimits,
  {af69d058-aa74-4303-8c2f-4b8bbd463065}, !- Handle
  Temperature,                            !- Name
  ,                                       !- Lower Limit Value
  ,                                       !- Upper Limit Value
  Continuous,                             !- Numeric Type
  Temperature;                            !- Unit Type

OS:Surface,
  {29252402-37d2-43b8-87c1-8efb435b37f1}, !- Handle
  Roof1,                                  !- Name
  RoofCeiling,                            !- Surface Type
  {e2bb695b-5bd8-4175-871f-a62c89dff0fe}, !- Construction Name
  {d94badb1-c8cb-48e6-8164-3d54380bba94}, !- Space Name
  Outdoors,                               !- Outside Boundary Condition
  ,                                       !- Outside Boundary Condition Object
  SunExposed,                             !- Sun Exposure
  WindExposed,                            !- Wind Exposure
  ,                                       !- View Factor to Ground
  ,                                       !- Number of Vertices
  -26.9347048849634, 58.0557891618865, 2.4384, !- X,Y,Z Vertex 1 {m}
  -26.9347048849634, 46.7895631136661, 8.0715130241102, !- X,Y,Z Vertex 2 {m}
  -14.3386812381136, 46.7895631136661, 8.0715130241102, !- X,Y,Z Vertex 3 {m}
  -14.3386812381136, 58.0557891618865, 2.4384; !- X,Y,Z Vertex 4 {m}

OS:AdditionalProperties,
  {7201689b-be8b-4ea8-9ed9-7a8d5afa189c}, !- Handle
  {29252402-37d2-43b8-87c1-8efb435b37f1}, !- Object Name
  Length,                                 !- Feature Name 1
  Double,                                 !- Feature Data Type 1
  41.325536899113608,                     !- Feature Value 1
  Width,                                  !- Feature Name 2
  Double,                                 !- Feature Data Type 2
  41.325536899113601,                     !- Feature Value 2
  Azimuth,                                !- Feature Name 3
  Integer,                                !- Feature Data Type 3
  0,                                      !- Feature Value 3
  Tilt,                                   !- Feature Name 4
  Double,                                 !- Feature Data Type 4
  0.5,                                    !- Feature Value 4
  SurfaceType,                            !- Feature Name 5
  String,                                 !- Feature Data Type 5
  Roof;                                   !- Feature Value 5

OS:ThermalZone,
  {d4250853-cd4e-4c48-8f17-60eb0217f53b}, !- Handle
  attic - vented,                         !- Name
  1,                                      !- Multiplier
  ,                                       !- Ceiling Height {m}
  356.390921899745,                       !- Volume {m3}
  ,                                       !- Floor Area {m2}
  ,                                       !- Zone Inside Convection Algorithm
  ,                                       !- Zone Outside Convection Algorithm
  ,                                       !- Zone Conditioning Equipment List Name
  {4dde99ce-8987-4e53-8503-775376c6a40f}, !- Zone Air Inlet Port List
  {46a64fe8-5c1c-4b13-954b-29d9b1c15252}, !- Zone Air Exhaust Port List
  {122b0bc4-ab14-45fe-9764-da598b1d9c34}, !- Zone Air Node Name
  {c6257d3a-32e8-4d45-9c48-381fef3ed70b}, !- Zone Return Air Port List
  ,                                       !- Primary Daylighting Control Name
  ,                                       !- Fraction of Zone Controlled by Primary Daylighting Control
  ,                                       !- Secondary Daylighting Control Name
  ,                                       !- Fraction of Zone Controlled by Secondary Daylighting Control
  ,                                       !- Illuminance Map Name
  ,                                       !- Group Rendering Name
  ,                                       !- Thermostat Name
  No;                                     !- Use Ideal Air Loads

OS:Node,
  {a6020288-fde3-492f-b4b9-162e9e3d7c7c}, !- Handle
  Node 2,                                 !- Name
  {122b0bc4-ab14-45fe-9764-da598b1d9c34}, !- Inlet Port
  ;                                       !- Outlet Port

OS:Connection,
  {122b0bc4-ab14-45fe-9764-da598b1d9c34}, !- Handle
  {d4250853-cd4e-4c48-8f17-60eb0217f53b}, !- Source Object
  11,                                     !- Outlet Port
  {a6020288-fde3-492f-b4b9-162e9e3d7c7c}, !- Target Object
  2;                                      !- Inlet Port

OS:PortList,
  {4dde99ce-8987-4e53-8503-775376c6a40f}, !- Handle
  {d4250853-cd4e-4c48-8f17-60eb0217f53b}; !- HVAC Component

OS:PortList,
  {46a64fe8-5c1c-4b13-954b-29d9b1c15252}, !- Handle
  {d4250853-cd4e-4c48-8f17-60eb0217f53b}; !- HVAC Component

OS:PortList,
  {c6257d3a-32e8-4d45-9c48-381fef3ed70b}, !- Handle
  {d4250853-cd4e-4c48-8f17-60eb0217f53b}; !- HVAC Component

OS:Sizing:Zone,
  {8a5dbf94-0342-491a-9796-c8b6dbcb569b}, !- Handle
  {d4250853-cd4e-4c48-8f17-60eb0217f53b}, !- Zone or ZoneList Name
  SupplyAirTemperature,                   !- Zone Cooling Design Supply Air Temperature Input Method
  14,                                     !- Zone Cooling Design Supply Air Temperature {C}
  11.11,                                  !- Zone Cooling Design Supply Air Temperature Difference {deltaC}
  SupplyAirTemperature,                   !- Zone Heating Design Supply Air Temperature Input Method
  40,                                     !- Zone Heating Design Supply Air Temperature {C}
  11.11,                                  !- Zone Heating Design Supply Air Temperature Difference {deltaC}
  0.0085,                                 !- Zone Cooling Design Supply Air Humidity Ratio {kg-H2O/kg-air}
  0.008,                                  !- Zone Heating Design Supply Air Humidity Ratio {kg-H2O/kg-air}
  ,                                       !- Zone Heating Sizing Factor
  ,                                       !- Zone Cooling Sizing Factor
  DesignDay,                              !- Cooling Design Air Flow Method
  ,                                       !- Cooling Design Air Flow Rate {m3/s}
  ,                                       !- Cooling Minimum Air Flow per Zone Floor Area {m3/s-m2}
  ,                                       !- Cooling Minimum Air Flow {m3/s}
  ,                                       !- Cooling Minimum Air Flow Fraction
  DesignDay,                              !- Heating Design Air Flow Method
  ,                                       !- Heating Design Air Flow Rate {m3/s}
  ,                                       !- Heating Maximum Air Flow per Zone Floor Area {m3/s-m2}
  ,                                       !- Heating Maximum Air Flow {m3/s}
  ,                                       !- Heating Maximum Air Flow Fraction
  No,                                     !- Account for Dedicated Outdoor Air System
  NeutralSupplyAir,                       !- Dedicated Outdoor Air System Control Strategy
  autosize,                               !- Dedicated Outdoor Air Low Setpoint Temperature for Design {C}
  autosize,                               !- Dedicated Outdoor Air High Setpoint Temperature for Design {C}
  Sensible Load Only No Latent Load,      !- Zone Load Sizing Method
  HumidityRatioDifference,                !- Zone Latent Cooling Design Supply Air Humidity Ratio Input Method
  ,                                       !- Zone Dehumidification Design Supply Air Humidity Ratio {kgWater/kgDryAir}
  0.005,                                  !- Zone Cooling Design Supply Air Humidity Ratio Difference {kgWater/kgDryAir}
  HumidityRatioDifference,                !- Zone Latent Heating Design Supply Air Humidity Ratio Input Method
  ,                                       !- Zone Humidification Design Supply Air Humidity Ratio {kgWater/kgDryAir}
  0.005,                                  !- Zone Humidification Design Supply Air Humidity Ratio Difference {kgWater/kgDryAir}
  ,                                       !- Zone Humidistat Dehumidification Set Point Schedule Name
  ,                                       !- Zone Humidistat Humidification Set Point Schedule Name
  ,                                       !- Design Zone Air Distribution Effectiveness in Cooling Mode
  ,                                       !- Design Zone Air Distribution Effectiveness in Heating Mode
  ,                                       !- Design Zone Secondary Recirculation Fraction {dimensionless}
  ,                                       !- Design Minimum Zone Ventilation Efficiency {dimensionless}
  Coincident;                             !- Sizing Option

OS:ZoneHVAC:EquipmentList,
  {0a64b27c-f6c4-4d6d-9ea7-2b024379d3b5}, !- Handle
  Zone HVAC Equipment List 2,             !- Name
  {d4250853-cd4e-4c48-8f17-60eb0217f53b}; !- Thermal Zone

OS:AdditionalProperties,
  {84da143a-9778-4ed5-8be2-98f0cb283a05}, !- Handle
  {d4250853-cd4e-4c48-8f17-60eb0217f53b}, !- Object Name
  ObjectType,                             !- Feature Name 1
  String,                                 !- Feature Data Type 1
  attic - vented;                         !- Feature Value 1

OS:Space,
  {d94badb1-c8cb-48e6-8164-3d54380bba94}, !- Handle
  attic - vented 1,                       !- Name
  ,                                       !- Space Type Name
  ,                                       !- Default Construction Set Name
  ,                                       !- Default Schedule Set Name
  ,                                       !- Direction of Relative North {deg}
  ,                                       !- X Origin {m}
  ,                                       !- Y Origin {m}
  ,                                       !- Z Origin {m}
  ,                                       !- Building Story Name
  {d4250853-cd4e-4c48-8f17-60eb0217f53b}, !- Thermal Zone Name
  ,                                       !- Part of Total Floor Area
  ,                                       !- Design Specification Outdoor Air Object Name
  ,                                       !- Building Unit Name
  356.390921899745;                       !- Volume {m3}

OS:Material,
  {d52ce996-f217-4711-ae3f-5e1bb97f521c}, !- Handle
  asphalt or fiberglass shingles,         !- Name
  Rough,                                  !- Roughness
  0.00635,                                !- Thickness {m}
  0.162714,                               !- Conductivity {W/m-K}
  1121.4,                                 !- Density {kg/m3}
  1465.45,                                !- Specific Heat {J/kg-K}
  0.9,                                    !- Thermal Absorptance
  0.85,                                   !- Solar Absorptance