
OS:Version,
  {c809d1c0-f7f0-405d-92b0-e46f2b320d60}, !- Handle
  3.9.0;                                  !- Version Identifier

OS:SimulationControl,
  {7dc02490-61b7-44c8-9878-a658ae34ef4c}, !- Handle
  ,                                       !- Do Zone Sizing Calculation
  ,                                       !- Do System Sizing Calculation
  ,                                       !- Do Plant Sizing Calculation
  No;                                     !- Run Simulation for Sizing Periods

OS:Timestep,
  {369636e4-1ad2-4937-96f3-6dfffa1913d7}, !- Handle
  1;                                      !- Number of Timesteps per Hour

OS:ShadowCalculation,
  {e2983110-3a40-4053-8221-fe7dbf7d2e87}, !- Handle
  PolygonClipping,                        !- Shading Calculation Method
  ,                                       !- Shading Calculation Update Frequency Method
  20,                                     !- Shading Calculation Update Frequency
  200,                                    !- Maximum Figures in Shadow Overlap Calculations
  ,                                       !- Polygon Clipping Algorithm
  512,                                    !- Pixel Counting Resolution
  ,                                       !- Sky Diffuse Modeling Algorithm
  No,                                     !- Output External Shading Calculation Results
  No,                                     !- Disable Self-Shading Within Shading Zone Groups
  No;                                     !- Disable Self-Shading From Shading Zone Groups to Other Zones

OS:SurfaceConvectionAlgorithm:Outside,
  {5f9a3f52-8297-4d92-8baa-be178b15cea1}, !- Handle
  DOE-2;                                  !- Algorithm

OS:SurfaceConvectionAlgorithm:Inside,
  {9fec150f-82af-410c-b607-10339e6c88d0}, !- Handle
  TARP;                                   !- Algorithm

OS:ZoneCapacitanceMultiplier:ResearchSpecial,
  {6b453ae6-b83f-4697-89d9-b02a7ea89d83}, !- Handle
  7,                                      !- Temperature Capacity Multiplier
  15,                                     !- Humidity Capacity Multiplier
  ;                                       !- Carbon Dioxide Capacity Multiplier

OS:ConvergenceLimits,
  {b9c4b5c5-f5d6-4eb7-989c-87c80b495a06}, !- Handle
  0;                                      !- Minimum System Timestep {minutes}

OS:RunPeriod,
  {1140714e-1676-41e9-ad22-eae3504fe0cc}, !- Handle
  Run Period 1,                           !- Name
  1,                                      !- Begin Month
  1,                                      !- Begin Day of Month
  12,                                     !- End Month
  31,                                     !- End Day of Month
  ,                                       !- Use Weather File Holidays and Special Days
  ,                                       !- Use Weather File Daylight Saving Period
  ,                                       !- Apply Weekend Holiday Rule
  ,                                       !- Use Weather File Rain Indicators
  ,                                       !- Use Weather File Snow Indicators
  ;                                       !- Number of Times Runperiod to be Repeated

OS:PerformancePrecisionTradeoffs,
  {f6ddbc33-e023-4695-b80f-0a4dce1c6059}, !- Handle
  ,                                       !- Use Coil Direct Solutions
  CarrollMRT;                             !- Zone Radiant Exchange Algorithm

OS:WeatherFile,
  {1a0d8512-9d2b-4523-8899-a2b893e0a514}, !- Handle
  Buffalo Niagara Intl Ap,                !- City
  NY,                                     !- State Province Region
  USA,                                    !- Country
  TMY3,                                   !- Data Source
  725280,                                 !- WMO Number
  42.93,                                  !- Latitude {deg}
  -78.73,                                 !- Longitude {deg}
  -5,                                     !- Time Zone {hr}
  215,                                    !- Elevation {m}
  /Users/nmoore/github/urbanopt-example-geojson-project/example_project/weather/USA_NY_Buffalo-Greater.Buffalo.Intl.AP.725280_TMY3.epw, !- Url
  6B50E0FF,                               !- Checksum
  ,                                       !- Start Date Actual Year
  Sunday;                                 !- Start Day of Week

OS:YearDescription,
  {a3298a4e-649e-4649-b551-fb3b3cf61d9a}, !- Handle
  2007,                                   !- Calendar Year
  ,                                       !- Day of Week for Start Day
  ;                                       !- Is Leap Year

OS:Site,
  {6db1d232-abcd-47b1-b226-ad90cb45e80c}, !- Handle
  Buffalo Niagara Intl Ap_NY,             !- Name
  42.93,                                  !- Latitude {deg}
  -78.73,                                 !- Longitude {deg}
  -5,                                     !- Time Zone {hr}
  215,                                    !- Elevation {m}
  Suburbs,                                !- Terrain
  Yes;                                    !- Keep Site Location Information

OS:RunPeriodControl:DaylightSavingTime,
  {c317458f-e897-422f-a267-2475d84ac864}, !- Handle
  Mar 12,                                 !- Start Date
  Nov 5;                                  !- End Date

OS:Site:GroundTemperature:Shallow,
  {5f1f9218-41f6-4af3-b670-87a15c9fa521}, !- Handle
  4.30207395723828,                       !- January Surface Ground Temperature {C}
  2.29327249652502,                       !- February Surface Ground Temperature {C}
  2.13240047156047,                       !- March Surface Ground Temperature {C}
  3.08567940719286,                       !- April Surface Ground Temperature {C}
  6.91256312497526,                       !- May Surface Ground Temperature {C}
  10.7216195949507,                       !- June Surface Ground Temperature {C}
  14.0238679822574,                       !- July Surface Ground Temperature {C}
  16.1157611184724,                       !- August Surface Ground Temperature {C}
  16.2934789303462,                       !- September Surface Ground Temperature {C}
  14.5920754632847,                       !- October Surface Ground Temperature {C}
  11.374036348653,                        !- November Surface Ground Temperature {C}
  7.68182621661674;                       !- December Surface Ground Temperature {C}

OS:ThermalZone,
  {993b5b82-a8d1-4885-adf8-0579e9118321}, !- Handle
  conditioned space,                      !- Name
  1,                                      !- Multiplier
  ,                                       !- Ceiling Height {m}
  692.06373070848,                        !- Volume {m3}
  ,                                       !- Floor Area {m2}
  ,                                       !- Zone Inside Convection Algorithm
  ,                                       !- Zone Outside Convection Algorithm
  ,                                       !- Zone Conditioning Equipment List Name
  {433916e6-fcb2-41fc-9ff1-55621833b3c2}, !- Zone Air Inlet Port List
  {f5f733e2-e23b-415e-ad57-138aed0d0573}, !- Zone Air Exhaust Port List
  {84c3d1e1-7943-4459-8e67-0edd9fa40905}, !- Zone Air Node Name
  {fd76be14-7453-4372-9002-e21dc699c543}, !- Zone Return Air Port List
  ,                                       !- Primary Daylighting Control Name
  ,                                       !- Fraction of Zone Controlled by Primary Daylighting Control
  ,                                       !- Secondary Daylighting Control Name
  ,                                       !- Fraction of Zone Controlled by Secondary Daylighting Control
  ,                                       !- Illuminance Map Name
  ,                                       !- Group Rendering Name
  {7abc7ec1-95fe-4e07-8efc-d17652213bfa}, !- Thermostat Name
  No;                                     !- Use Ideal Air Loads

OS:Node,
  {47875f0f-96de-4f57-8f03-d3a84b1f4738}, !- Handle
  Node 1,                                 !- Name
  {84c3d1e1-7943-4459-8e67-0edd9fa40905}, !- Inlet Port
  ;                                       !- Outlet Port

OS:Connection,
  {84c3d1e1-7943-4459-8e67-0edd9fa40905}, !- Handle
  {993b5b82-a8d1-4885-adf8-0579e9118321}, !- Source Object
  11,                                     !- Outlet Port
  {47875f0f-96de-4f57-8f03-d3a84b1f4738}, !- Target Object
  2;                                      !- Inlet Port

OS:PortList,
  {433916e6-fcb2-41fc-9ff1-55621833b3c2}, !- Handle
  {993b5b82-a8d1-4885-adf8-0579e9118321}, !- HVAC Component
  {16952026-02cc-403d-8fc4-af51082c796e}; !- Port 1

OS:PortList,
  {f5f733e2-e23b-415e-ad57-138aed0d0573}, !- Handle
  {993b5b82-a8d1-4885-adf8-0579e9118321}; !- HVAC Component

OS:PortList,
  {fd76be14-7453-4372-9002-e21dc699c543}, !- Handle
  {993b5b82-a8d1-4885-adf8-0579e9118321}, !- HVAC Component
  {2cfb685a-b94b-4ec9-8df1-5b3b3faacffc}; !- Port 1

OS:Sizing:Zone,
  {04458c0c-c7f9-40bd-8647-a8e70cc7b763}, !- Handle
  {993b5b82-a8d1-4885-adf8-0579e9118321}, !- Zone or ZoneList Name
  SupplyAirTemperature,                   !- Zone Cooling Design Supply Air Temperature Input Method
  14,                                     !- Zone Cooling Design Supply Air Temperature {C}
  11.11,                                  !- Zone Cooling Design Supply Air Temperature Difference {deltaC}
  SupplyAirTemperature,                   !- Zone Heating Design Supply Air Temperature Input Method
  40,                                     !- Zone Heating Design Supply Air Temperature {C}
  11.11,                                  !- Zone Heating Design Supply Air Temperature Difference {deltaC}
  0.0085,                                 !- Zone Cooling Design Supply Air Humidity Ratio {kg-H2O/kg-air}
  0.008,                                  !- Zone Heating Design Supply Air Humidity Ratio {kg-H2O/kg-air}
  ,                                       !- Zone Heating Sizing Factor
  ,                                       !- Zone Cooling Sizing Factor
  DesignDay,                              !- Cooling Design Air Flow Method
  ,                                       !- Cooling Design Air Flow Rate {m3/s}
  ,                                       !- Cooling Minimum Air Flow per Zone Floor Area {m3/s-m2}
  ,                                       !- Cooling Minimum Air Flow {m3/s}
  ,                                       !- Cooling Minimum Air Flow Fraction
  DesignDay,                              !- Heating Design Air Flow Method
  ,                                       !- Heating Design Air Flow Rate {m3/s}
  ,                                       !- Heating Maximum Air Flow per Zone Floor Area {m3/s-m2}
  ,                                       !- Heating Maximum Air Flow {m3/s}
  ,                                       !- Heating Maximum Air Flow Fraction
  No,                                     !- Account for Dedicated Outdoor Air System
  NeutralSupplyAir,                       !- Dedicated Outdoor Air System Control Strategy
  autosize,                               !- Dedicated Outdoor Air Low Setpoint Temperature for Design {C}
  autosize,                               !- Dedicated Outdoor Air High Setpoint Temperature for Design {C}
  Sensible Load Only No Latent Load,      !- Zone Load Sizing Method
  HumidityRatioDifference,                !- Zone Latent Cooling Design Supply Air Humidity Ratio Input Method
  ,                                       !- Zone Dehumidification Design Supply Air Humidity Ratio {kgWater/kgDryAir}
  0.005,                                  !- Zone Cooling Design Supply Air Humidity Ratio Difference {kgWater/kgDryAir}
  HumidityRatioDifference,                !- Zone Latent Heating Design Supply Air Humidity Ratio Input Method
  ,                                       !- Zone Humidification Design Supply Air Humidity Ratio {kgWater/kgDryAir}
  0.005,                                  !- Zone Humidification Design Supply Air Humidity Ratio Difference {kgWater/kgDryAir}
  ,                                       !- Zone Humidistat Dehumidification Set Point Schedule Name
  ,                                       !- Zone Humidistat Humidification Set Point Schedule Name
  ,                                       !- Design Zone Air Distribution Effectiveness in Cooling Mode
  ,                                       !- Design Zone Air Distribution Effectiveness in Heating Mode
  ,                                       !- Design Zone Secondary Recirculation Fraction {dimensionless}
  ,                                       !- Design Minimum Zone Ventilation Efficiency {dimensionless}
  Coincident;                             !- Sizing Option

OS:ZoneHVAC:EquipmentList,
  {95fcb73e-3c80-4937-88d0-45693846b2e9}, !- Handle
  Zone HVAC Equipment List 1,             !- Name
  {993b5b82-a8d1-4885-adf8-0579e9118321}, !- Thermal Zone
  ,                                       !- Load Distribution Scheme
  {0cffd6e6-0b9e-4ec0-a42b-7b51e3a7d02b}, !- Zone Equipment 1
  1,                                      !- Zone Equipment Cooling Sequence 1
  1,                                      !- Zone Equipment Heating or No-Load Sequence 1
  {c0f75f6e-c04c-406d-b8d0-5d27b4c6fe25}, !- Zone Equipment Sequential Cooling Fraction Schedule Name 1
  {ccd692eb-8b46-4cc1-9930-7fe1ce7fba76}; !- Zone Equipment Sequential Heating Fraction Schedule Name 1

OS:AdditionalProperties,
  {f77a3d27-3647-4182-8f2c-dd2d34126488}, !- Handle
  {993b5b82-a8d1-4885-adf8-0579e9118321}, !- Object Name
  ObjectType,                             !- Feature Name 1
  String,                                 !- Feature Data Type 1
  conditioned space;                      !- Feature Value 1

OS:Space,
  {b4f352ad-3474-40bd-af27-42b73bd911f8}, !- Handle
  conditioned space 1,                    !- Name
  ,                                       !- Space Type Name
  ,                                       !- Default Construction Set Name
  ,                                       !- Default Schedule Set Name
  ,                                       !- Direction of Relative North {deg}
  ,                                       !- X Origin {m}
  ,                                       !- Y Origin {m}
  ,                                       !- Z Origin {m}
  ,                                       !- Building Story Name
  {993b5b82-a8d1-4885-adf8-0579e9118321}, !- Thermal Zone Name
  ,                                       !- Part of Total Floor Area
  ,                                       !- Design Specification Outdoor Air Object Name
  ,                                       !- Building Unit Name
  692.06373070848;                        !- Volume {m3}

OS:Schedule:Ruleset,
  {365b3e35-f6db-40ce-8fc3-27bad88d817f}, !- Handle
  heating setpoint,                       !- Name
  {af28c1a2-3778-4eb7-a55c-81aeb64e9ecd}, !- Schedule Type Limits Name
  {cadf0e63-e7d4-44be-9d17-bb6ccc9223fc}; !- Default Day Schedule Name

OS:Schedule:Day,
  {cadf0e63-e7d4-44be-9d17-bb6ccc9223fc}, !- Handle
  heating setpoint default day,           !- Name
  {af28c1a2-3778-4eb7-a55c-81aeb64e9ecd}, !- Schedule Type Limits Name
  ,                                       !- Interpolate to Timestep
  24,                                     !- Hour 1
  0,                                      !- Minute 1
  0;                                      !- Value Until Time 1

OS:Schedule:Rule,
  {09f65cad-5aec-4b82-8de1-26ddc940cf2b}, !- Handle
  heating setpoint allday rule,           !- Name
  {365b3e35-f6db-40ce-8fc3-27bad88d817f}, !- Schedule Ruleset Name
  0,                                      !- Rule Order
  {f6024b38-4c21-42be-8bd3-51b285f01d5b}, !- Day Schedule Name
  Yes,                                    !- Apply Sunday
  Yes,                                    !- Apply Monday
  Yes,                                    !- Apply Tuesday
  Yes,                                    !- Apply Wednesday
  Yes,                                    !- Apply Thursday
  Yes,                                    !- Apply Friday
  Yes,                                    !- Apply Saturday
  DateRange,                              !- Date Specification Type
  1,                                      !- Start Month
  1,                                      !- Start Day
  12,                                     !- End Month
  31;                                     !- End Day

OS:Schedule:Day,
  {f6024b38-4c21-42be-8bd3-51b285f01d5b}, !- Handle
  heating setpoint day,                   !- Name
  {af28c1a2-3778-4eb7-a55c-81aeb64e9ecd}, !- Schedule Type Limits Name
  ,                                       !- Interpolate to Timestep
  24,                                     !- Hour 1
  0,                                      !- Minute 1
  20;                                     !- Value Until Time 1

OS:Schedule:Ruleset,
  {db8d36e6-721e-4d19-ac3f-118b6c7a7595}, !- Handle
  cooling setpoint,                       !- Name
  {af28c1a2-3778-4eb7-a55c-81aeb64e9ecd}, !- Schedule Type Limits Name
  {b4cba9d8-16b4-407f-a45d-aa50b4fde1aa}; !- Default Day Schedule Name

OS:Schedule:Day,
  {b4cba9d8-16b4-407f-a45d-aa50b4fde1aa}, !- Handle
  cooling setpoint default day,           !- Name
  {af28c1a2-3778-4eb7-a55c-81aeb64e9ecd}, !- Schedule Type Limits Name
  ,                                       !- Interpolate to Timestep
  24,                                     !- Hour 1
  0,                                      !- Minute 1
  0;                                      !- Value Until Time 1

OS:Schedule:Rule,
  {6b94e802-4c7a-48ab-9a5a-cc96f7ccadfe}, !- Handle
  cooling setpoint allday rule,           !- Name
  {db8d36e6-721e-4d19-ac3f-118b6c7a7595}, !- Schedule Ruleset Name
  0,                                      !- Rule Order
  {9f4a1832-b34e-47b6-92a2-d8c87bef4329}, !- Day Schedule Name
  Yes,                                    !- Apply Sunday
  Yes,                                    !- Apply Monday
  Yes,                                    !- Apply Tuesday
  Yes,                                    !- Apply Wednesday
  Yes,                                    !- Apply Thursday
  Yes,                                    !- Apply Friday
  Yes,                                    !- Apply Saturday
  DateRange,                              !- Date Specification Type
  1,                                      !- Start Month
  1,                                      !- Start Day
  12,                                     !- End Month
  31;                                     !- End Day

OS:Schedule:Day,
  {9f4a1832-b34e-47b6-92a2-d8c87bef4329}, !- Handle
  cooling setpoint day,                   !- Name
  {af28c1a2-3778-4eb7-a55c-81aeb64e9ecd}, !- Schedule Type Limits Name
  ,                                       !- Interpolate to Timestep
  24,                                     !- Hour 1
  0,                                      !- Minute 1
  25.5555555555556;                       !- Value Until Time 1

OS:ThermostatSetpoint:DualSetpoint,
  {7abc7ec1-95fe-4e07-8efc-d17652213bfa}, !- Handle
  conditioned space temperature setpoint, !- Name
  {365b3e35-f6db-40ce-8fc3-27bad88d817f}, !- Heating Setpoint Temperature Schedule Name
  {db8d36e6-721e-4d19-ac3f-118b6c7a7595}, !- Cooling Setpoint Temperature Schedule Name
  0;                                      !- Temperature Difference Between Cutout And Setpoint {deltaC}

OS:ScheduleTypeLimits,
  {af28c1a2-3778-4eb7-a55c-81aeb64e9ecd}, !- Handle
  Temperature,                            !- Name
  ,                                       !- Lower Limit Value
  ,                                       !- Upper Limit Value
  Continuous,                             !- Numeric Type
  Temperature;                            !- Unit Type

OS:Surface,
  {89ba5807-efb6-42a2-9822-2b8db23cca6c}, !- Handle
  Roof1,                                  !- Name
  RoofCeiling,                            !- Surface Type
  {4dfa115b-7c77-4083-b551-07b3df787676}, !- Construction Name
  {8b011aa0-8403-44fb-b771-45ee82a4bc6e}, !- Space Name
  Outdoors,                               !- Outside Boundary Condition
  ,                                       !- Outside Boundary Condition Object
  SunExposed,                             !- Sun Exposure
  WindExposed,                            !- Wind Exposure
  ,                                       !- View Factor to Ground
  ,                                       !- Number of Vertices
  -26.9347048849634, 58.0557891618865, 2.4384, !- X,Y,Z Vertex 1 {m}
  -26.9347048849634, 46.7895631136661, 8.0715130241102, !- X,Y,Z Vertex 2 {m}
  -14.3386812381136, 46.7895631136661, 8.0715130241102, !- X,Y,Z Vertex 3 {m}
  -14.3386812381136, 58.0557891618865, 2.4384; !- X,Y,Z Vertex 4 {m}

OS:AdditionalProperties,
  {ec5a0986-5363-446f-ba71-7e7e7b5ea7f8}, !- Handle
  {89ba5807-efb6-42a2-9822-2b8db23cca6c}, !- Object Name
  Length,                                 !- Feature Name 1
  Double,                                 !- Feature Data Type 1
  41.325536899113608,                     !- Feature Value 1
  Width,                                  !- Feature Name 2
  Double,                                 !- Feature Data Type 2
  41.325536899113601,                     !- Feature Value 2
  Azimuth,                                !- Feature Name 3
  Integer,                                !- Feature Data Type 3
  0,                                      !- Feature Value 3
  Tilt,                                   !- Feature Name 4
  Double,                                 !- Feature Data Type 4
  0.5,                                    !- Feature Value 4
  SurfaceType,                            !- Feature Name 5
  String,                                 !- Feature Data Type 5
  Roof;                                   !- Feature Value 5

OS:ThermalZone,
  {426137e4-5675-41b0-aefd-c67b00c5ebf5}, !- Handle
  attic - vented,                         !- Name
  1,                                      !- Multiplier
  ,                                       !- Ceiling Height {m}
  356.389957095237,                       !- Volume {m3}
  ,                                       !- Floor Area {m2}
  ,                                       !- Zone Inside Convection Algorithm
  ,                                       !- Zone Outside Convection Algorithm
  ,                                       !- Zone Conditioning Equipment List Name
  {67b241e4-d725-441e-ba09-d19fb22a3fd8}, !- Zone Air Inlet Port List
  {5d03c969-b7ea-4a65-b93f-2672d60dd9d7}, !- Zone Air Exhaust Port List
  {6ef27491-4700-40d9-a235-852cc67e0405}, !- Zone Air Node Name
  {e91e9246-1b41-4e44-a192-f2bee20bf707}, !- Zone Return Air Port List
  ,                                       !- Primary Daylighting Control Name
  ,                                       !- Fraction of Zone Controlled by Primary Daylighting Control
  ,                                       !- Secondary Daylighting Control Name
  ,                                       !- Fraction of Zone Controlled by Secondary Daylighting Control
  ,                                       !- Illuminance Map Name
  ,                                       !- Group Rendering Name
  ,                                       !- Thermostat Name
  No;                                     !- Use Ideal Air Loads

OS:Node,
  {18797b60-577f-49c2-a868-d3dfb3496838}, !- Handle
  Node 2,                                 !- Name
  {6ef27491-4700-40d9-a235-852cc67e0405}, !- Inlet Port
  ;                                       !- Outlet Port

OS:Connection,
  {6ef27491-4700-40d9-a235-852cc67e0405}, !- Handle
  {426137e4-5675-41b0-aefd-c67b00c5ebf5}, !- Source Object
  11,                                     !- Outlet Port
  {18797b60-577f-49c2-a868-d3dfb3496838}, !- Target Object
  2;                                      !- Inlet Port

OS:PortList,
  {67b241e4-d725-441e-ba09-d19fb22a3fd8}, !- Handle
  {426137e4-5675-41b0-aefd-c67b00c5ebf5}; !- HVAC Component

OS:PortList,
  {5d03c969-b7ea-4a65-b93f-2672d60dd9d7}, !- Handle
  {426137e4-5675-41b0-aefd-c67b00c5ebf5}; !- HVAC Component

OS:PortList,
  {e91e9246-1b41-4e44-a192-f2bee20bf707}, !- Handle
  {426137e4-5675-41b0-aefd-c67b00c5ebf5}; !- HVAC Component

OS:Sizing:Zone,
  {6e702b16-e3e9-4b1f-8a90-680d083ed656}, !- Handle
  {426137e4-5675-41b0-aefd-c67b00c5ebf5}, !- Zone or ZoneList Name
  SupplyAirTemperature,                   !- Zone Cooling Design Supply Air Temperature Input Method
  14,                                     !- Zone Cooling Design Supply Air Temperature {C}
  11.11,                                  !- Zone Cooling Design Supply Air Temperature Difference {deltaC}
  SupplyAirTemperature,                   !- Zone Heating Design Supply Air Temperature Input Method
  40,                                     !- Zone Heating Design Supply Air Temperature {C}
  11.11,                                  !- Zone Heating Design Supply Air Temperature Difference {deltaC}
  0.0085,                                 !- Zone Cooling Design Supply Air Humidity Ratio {kg-H2O/kg-air}
  0.008,                                  !- Zone Heating Design Supply Air Humidity Ratio {kg-H2O/kg-air}
  ,                                       !- Zone Heating Sizing Factor
  ,                                       !- Zone Cooling Sizing Factor
  DesignDay,                              !- Cooling Design Air Flow Method
  ,                                       !- Cooling Design Air Flow Rate {m3/s}
  ,                                       !- Cooling Minimum Air Flow per Zone Floor Area {m3/s-m2}
  ,                                       !- Cooling Minimum Air Flow {m3/s}
  ,                                       !- Cooling Minimum Air Flow Fraction
  DesignDay,                              !- Heating Design Air Flow Method
  ,                                       !- Heating Design Air Flow Rate {m3/s}
  ,                                       !- Heating Maximum Air Flow per Zone Floor Area {m3/s-m2}
  ,                                       !- Heating Maximum Air Flow {m3/s}
  ,                                       !- Heating Maximum Air Flow Fraction
  No,                                     !- Account for Dedicated Outdoor Air System
  NeutralSupplyAir,                       !- Dedicated Outdoor Air System Control Strategy
  autosize,                               !- Dedicated Outdoor Air Low Setpoint Temperature for Design {C}
  autosize,                               !- Dedicated Outdoor Air High Setpoint Temperature for Design {C}
  Sensible Load Only No Latent Load,      !- Zone Load Sizing Method
  HumidityRatioDifference,                !- Zone Latent Cooling Design Supply Air Humidity Ratio Input Method
  ,                                       !- Zone Dehumidification Design Supply Air Humidity Ratio {kgWater/kgDryAir}
  0.005,                                  !- Zone Cooling Design Supply Air Humidity Ratio Difference {kgWater/kgDryAir}
  HumidityRatioDifference,                !- Zone Latent Heating Design Supply Air Humidity Ratio Input Method
  ,                                       !- Zone Humidification Design Supply Air Humidity Ratio {kgWater/kgDryAir}
  0.005,                                  !- Zone Humidification Design Supply Air Humidity Ratio Difference {kgWater/kgDryAir}
  ,                                       !- Zone Humidistat Dehumidification Set Point Schedule Name
  ,                                       !- Zone Humidistat Humidification Set Point Schedule Name
  ,                                       !- Design Zone Air Distribution Effectiveness in Cooling Mode
  ,                                       !- Design Zone Air Distribution Effectiveness in Heating Mode
  ,                                       !- Design Zone Secondary Recirculation Fraction {dimensionless}
  ,                                       !- Design Minimum Zone Ventilation Efficiency {dimensionless}
  Coincident;                             !- Sizing Option

OS:ZoneHVAC:EquipmentList,
  {b6e23d75-992b-41db-b5e1-e38fb750026e}, !- Handle
  Zone HVAC Equipment List 2,             !- Name
  {426137e4-5675-41b0-aefd-c67b00c5ebf5}; !- Thermal Zone

OS:AdditionalProperties,
  {6ba1f13e-8f5d-4113-85db-3d752230dfd2}, !- Handle
  {426137e4-5675-41b0-aefd-c67b00c5ebf5}, !- Object Name
  ObjectType,                             !- Feature Name 1
  String,                                 !- Feature Data Type 1
  attic - vented;                         !- Feature Value 1

OS:Space,
  {8b011aa0-8403-44fb-b771-45ee82a4bc6e}, !- Handle
  attic - vented 1,                       !- Name
  ,                                       !- Space Type Name
  ,                                       !- Default Construction Set Name
  ,                                       !- Default Schedule Set Name
  ,                                       !- Direction of Relative North {deg}
  ,                                       !- X Origin {m}
  ,                                       !- Y Origin {m}
  ,                                       !- Z Origin {m}
  ,                                       !- Building Story Name
  {426137e4-5675-41b0-aefd-c67b00c5ebf5}, !- Thermal Zone Name
  ,                                       !- Part of Total Floor Area
  ,                                       !- Design Specification Outdoor Air Object Name
  ,                                       !- Building Unit Name
  356.389957095237;                       !- Volume {m3}

OS:Material,
  {d341d137-d862-4649-b4a0-ec8fa7e6571e}, !- Handle
  asphalt or fiberglass shingles,         !- Name
  Rough,                                  !- Roughness
  0.00635,                                !- Thickness {m}
  0.162714,                               !- Conductivity {W/m-K}
  1121.4,                                 !- Density {kg/m3}
  1465.45,                                !- Specific Heat {J/kg-K}
  0.9,                                    !- Thermal Absorptance
  0.85,                                   !- Solar Absorptance