
OS:Version,
  {7c32ff6d-59cd-44b1-b040-ab56163e728c}, !- Handle
  3.10.0;                                 !- Version Identifier

OS:SimulationControl,
  {5eb482a0-2dfc-44c2-8283-c916955da86a}, !- Handle
  ,                                       !- Do Zone Sizing Calculation
  ,                                       !- Do System Sizing Calculation
  ,                                       !- Do Plant Sizing Calculation
  No;                                     !- Run Simulation for Sizing Periods

OS:Timestep,
  {6a88a825-cee6-44b2-b7fa-8980290b191f}, !- Handle
  1;                                      !- Number of Timesteps per Hour

OS:ShadowCalculation,
  {2753e769-0be2-407a-8ee2-dee1313e9aa9}, !- Handle
  PolygonClipping,                        !- Shading Calculation Method
  ,                                       !- Shading Calculation Update Frequency Method
  20,                                     !- Shading Calculation Update Frequency
  200,                                    !- Maximum Figures in Shadow Overlap Calculations
  ,                                       !- Polygon Clipping Algorithm
  512,                                    !- Pixel Counting Resolution
  ,                                       !- Sky Diffuse Modeling Algorithm
  No,                                     !- Output External Shading Calculation Results
  No,                                     !- Disable Self-Shading Within Shading Zone Groups
  No;                                     !- Disable Self-Shading From Shading Zone Groups to Other Zones

OS:SurfaceConvectionAlgorithm:Outside,
  {6c9aebf9-b937-43c2-a12b-2ae6785a4b00}, !- Handle
  DOE-2;                                  !- Algorithm

OS:SurfaceConvectionAlgorithm:Inside,
  {f799bb05-7f2a-45d5-a656-36b9e2945def}, !- Handle
  TARP;                                   !- Algorithm

OS:ZoneCapacitanceMultiplier:ResearchSpecial,
  {8e6d2e57-32ce-4757-b0e0-6c7b1f146384}, !- Handle
  7,                                      !- Temperature Capacity Multiplier
  15,                                     !- Humidity Capacity Multiplier
  ;                                       !- Carbon Dioxide Capacity Multiplier

OS:ConvergenceLimits,
  {e9642492-e449-4e28-baf7-0cc31aecb166}, !- Handle
  0;                                      !- Minimum System Timestep {minutes}

OS:RunPeriod,
  {e6ea7df8-1a93-4c7f-a238-58ddb25dd534}, !- Handle
  Run Period 1,                           !- Name
  1,                                      !- Begin Month
  1,                                      !- Begin Day of Month
  12,                                     !- End Month
  31,                                     !- End Day of Month
  ,                                       !- Use Weather File Holidays and Special Days
  ,                                       !- Use Weather File Daylight Saving Period
  ,                                       !- Apply Weekend Holiday Rule
  ,                                       !- Use Weather File Rain Indicators
  ,                                       !- Use Weather File Snow Indicators
  ;                                       !- Number of Times Runperiod to be Repeated

OS:PerformancePrecisionTradeoffs,
  {4efd251e-ef4e-4a5c-9b6b-15864177aa0c}, !- Handle
  ,                                       !- Use Coil Direct Solutions
  CarrollMRT;                             !- Zone Radiant Exchange Algorithm

OS:WeatherFile,
  {4edd674f-d687-4e1f-a24d-7d5e51055791}, !- Handle
  Buffalo Niagara Intl Ap,                !- City
  NY,                                     !- State Province Region
  USA,                                    !- Country
  TMY3,                                   !- Data Source
  725280,                                 !- WMO Number
  42.93,                                  !- Latitude {deg}
  -78.73,                                 !- Longitude {deg}
  -5,                                     !- Time Zone {hr}
  215,                                    !- Elevation {m}
  /Users/nmoore/github/urbanopt-example-geojson-project/example_project/weather/USA_NY_Buffalo-Greater.Buffalo.Intl.AP.725280_TMY3.epw, !- Url
  6B50E0FF,                               !- Checksum
  ,                                       !- Start Date Actual Year
  Sunday;                                 !- Start Day of Week

OS:YearDescription,
  {6b2afc5e-ffb1-439f-b25f-2d8e77af6ea9}, !- Handle
  2007,                                   !- Calendar Year
  ,                                       !- Day of Week for Start Day
  ;                                       !- Is Leap Year

OS:Site,
  {833ca22d-c7c5-4b7b-8774-0344efbe9bc6}, !- Handle
  Buffalo Niagara Intl Ap_NY,             !- Name
  42.93,                                  !- Latitude {deg}
  -78.73,                                 !- Longitude {deg}
  -5,                                     !- Time Zone {hr}
  215,                                    !- Elevation {m}
  Suburbs,                                !- Terrain
  Yes;                                    !- Keep Site Location Information

OS:RunPeriodControl:DaylightSavingTime,
  {145310f3-839b-480c-b774-948c5364be91}, !- Handle
  Mar 12,                                 !- Start Date
  Nov 5;                                  !- End Date

OS:Site:GroundTemperature:Shallow,
  {d589fe25-f32f-4366-9922-8d22a6795a66}, !- Handle
  4.30207395723828,                       !- January Surface Ground Temperature {C}
  2.29327249652502,                       !- February Surface Ground Temperature {C}
  2.13240047156047,                       !- March Surface Ground Temperature {C}
  3.08567940719286,                       !- April Surface Ground Temperature {C}
  6.91256312497526,                       !- May Surface Ground Temperature {C}
  10.7216195949507,                       !- June Surface Ground Temperature {C}
  14.0238679822574,                       !- July Surface Ground Temperature {C}
  16.1157611184724,                       !- August Surface Ground Temperature {C}
  16.2934789303462,                       !- September Surface Ground Temperature {C}
  14.5920754632847,                       !- October Surface Ground Temperature {C}
  11.374036348653,                        !- November Surface Ground Temperature {C}
  7.68182621661674;                       !- December Surface Ground Temperature {C}

OS:ThermalZone,
  {ce61bc79-5556-42ec-9b8b-30597aed587e}, !- Handle
  conditioned space,                      !- Name
  1,                                      !- Multiplier
  ,                                       !- Ceiling Height {m}
  692.06373070848,                        !- Volume {m3}
  ,                                       !- Floor Area {m2}
  ,                                       !- Zone Inside Convection Algorithm
  ,                                       !- Zone Outside Convection Algorithm
  ,                                       !- Zone Conditioning Equipment List Name
  {aed790f2-a12e-412a-899d-eac0cf833ca9}, !- Zone Air Inlet Port List
  {c52db6c7-b360-4f1a-89b8-a3476cb40c40}, !- Zone Air Exhaust Port List
  {2f84121a-c42b-4838-8572-f48eabae755a}, !- Zone Air Node Name
  {6acb30dd-feba-4b39-a31d-97645aac7a0c}, !- Zone Return Air Port List
  ,                                       !- Primary Daylighting Control Name
  ,                                       !- Fraction of Zone Controlled by Primary Daylighting Control
  ,                                       !- Secondary Daylighting Control Name
  ,                                       !- Fraction of Zone Controlled by Secondary Daylighting Control
  ,                                       !- Illuminance Map Name
  ,                                       !- Group Rendering Name
  {959d16fb-6fe6-4881-99d0-9e47e8b2228d}, !- Thermostat Name
  No;                                     !- Use Ideal Air Loads

OS:Node,
  {43333c49-cd72-4407-9530-27f1dddcc110}, !- Handle
  Node 1,                                 !- Name
  {2f84121a-c42b-4838-8572-f48eabae755a}, !- Inlet Port
  ;                                       !- Outlet Port

OS:Connection,
  {2f84121a-c42b-4838-8572-f48eabae755a}, !- Handle
  {ce61bc79-5556-42ec-9b8b-30597aed587e}, !- Source Object
  11,                                     !- Outlet Port
  {43333c49-cd72-4407-9530-27f1dddcc110}, !- Target Object
  2;                                      !- Inlet Port

OS:PortList,
  {aed790f2-a12e-412a-899d-eac0cf833ca9}, !- Handle
  {ce61bc79-5556-42ec-9b8b-30597aed587e}, !- HVAC Component
  {a6ba7a3f-1d5a-4a44-9fec-c2a7c39898b9}; !- Port 1

OS:PortList,
  {c52db6c7-b360-4f1a-89b8-a3476cb40c40}, !- Handle
  {ce61bc79-5556-42ec-9b8b-30597aed587e}; !- HVAC Component

OS:PortList,
  {6acb30dd-feba-4b39-a31d-97645aac7a0c}, !- Handle
  {ce61bc79-5556-42ec-9b8b-30597aed587e}, !- HVAC Component
  {ed24bccb-6d9a-4eed-a6fc-41ef9d8faac0}; !- Port 1

OS:Sizing:Zone,
  {dd552b19-a271-452c-a8cc-c04a4d535c3f}, !- Handle
  {ce61bc79-5556-42ec-9b8b-30597aed587e}, !- Zone or ZoneList Name
  SupplyAirTemperature,                   !- Zone Cooling Design Supply Air Temperature Input Method
  14,                                     !- Zone Cooling Design Supply Air Temperature {C}
  11.11,                                  !- Zone Cooling Design Supply Air Temperature Difference {deltaC}
  SupplyAirTemperature,                   !- Zone Heating Design Supply Air Temperature Input Method
  40,                                     !- Zone Heating Design Supply Air Temperature {C}
  11.11,                                  !- Zone Heating Design Supply Air Temperature Difference {deltaC}
  0.0085,                                 !- Zone Cooling Design Supply Air Humidity Ratio {kg-H2O/kg-air}
  0.008,                                  !- Zone Heating Design Supply Air Humidity Ratio {kg-H2O/kg-air}
  ,                                       !- Zone Heating Sizing Factor
  ,                                       !- Zone Cooling Sizing Factor
  DesignDay,                              !- Cooling Design Air Flow Method
  ,                                       !- Cooling Design Air Flow Rate {m3/s}
  ,                                       !- Cooling Minimum Air Flow per Zone Floor Area {m3/s-m2}
  ,                                       !- Cooling Minimum Air Flow {m3/s}
  ,                                       !- Cooling Minimum Air Flow Fraction
  DesignDay,                              !- Heating Design Air Flow Method
  ,                                       !- Heating Design Air Flow Rate {m3/s}
  ,                                       !- Heating Maximum Air Flow per Zone Floor Area {m3/s-m2}
  ,                                       !- Heating Maximum Air Flow {m3/s}
  ,                                       !- Heating Maximum Air Flow Fraction
  No,                                     !- Account for Dedicated Outdoor Air System
  NeutralSupplyAir,                       !- Dedicated Outdoor Air System Control Strategy
  autosize,                               !- Dedicated Outdoor Air Low Setpoint Temperature for Design {C}
  autosize,                               !- Dedicated Outdoor Air High Setpoint Temperature for Design {C}
  Sensible Load Only No Latent Load,      !- Zone Load Sizing Method
  HumidityRatioDifference,                !- Zone Latent Cooling Design Supply Air Humidity Ratio Input Method
  ,                                       !- Zone Dehumidification Design Supply Air Humidity Ratio {kgWater/kgDryAir}
  0.005,                                  !- Zone Cooling Design Supply Air Humidity Ratio Difference {kgWater/kgDryAir}
  HumidityRatioDifference,                !- Zone Latent Heating Design Supply Air Humidity Ratio Input Method
  ,                                       !- Zone Humidification Design Supply Air Humidity Ratio {kgWater/kgDryAir}
  0.005,                                  !- Zone Humidification Design Supply Air Humidity Ratio Difference {kgWater/kgDryAir}
  ,                                       !- Zone Humidistat Dehumidification Set Point Schedule Name
  ,                                       !- Zone Humidistat Humidification Set Point Schedule Name
  ,                                       !- Design Zone Air Distribution Effectiveness in Cooling Mode
  ,                                       !- Design Zone Air Distribution Effectiveness in Heating Mode
  ,                                       !- Design Zone Secondary Recirculation Fraction {dimensionless}
  ,                                       !- Design Minimum Zone Ventilation Efficiency {dimensionless}
  Coincident;                             !- Sizing Option

OS:ZoneHVAC:EquipmentList,
  {550bf87e-879e-42cd-ab05-e1e434080dc9}, !- Handle
  Zone HVAC Equipment List 1,             !- Name
  {ce61bc79-5556-42ec-9b8b-30597aed587e}, !- Thermal Zone
  ,                                       !- Load Distribution Scheme
  {0a53e752-7ac4-418d-8695-0d0af46d7e72}, !- Zone Equipment 1
  1,                                      !- Zone Equipment Cooling Sequence 1
  1,                                      !- Zone Equipment Heating or No-Load Sequence 1
  {ea79f8d8-d096-4717-950a-e8a5309f83e7}, !- Zone Equipment Sequential Cooling Fraction Schedule Name 1
  {24d5f201-d4fa-4ddf-bf7f-28466ce2c22f}; !- Zone Equipment Sequential Heating Fraction Schedule Name 1

OS:AdditionalProperties,
  {e53e40c6-71c0-4c11-9abe-d4b884882661}, !- Handle
  {ce61bc79-5556-42ec-9b8b-30597aed587e}, !- Object Name
  ObjectType,                             !- Feature Name 1
  String,                                 !- Feature Data Type 1
  conditioned space;                      !- Feature Value 1

OS:Space,
  {d4d87ef5-57e6-4891-84be-ff6f01d578c0}, !- Handle
  conditioned space 1,                    !- Name
  ,                                       !- Space Type Name
  ,                                       !- Default Construction Set Name
  ,                                       !- Default Schedule Set Name
  ,                                       !- Direction of Relative North {deg}
  ,                                       !- X Origin {m}
  ,                                       !- Y Origin {m}
  ,                                       !- Z Origin {m}
  ,                                       !- Building Story Name
  {ce61bc79-5556-42ec-9b8b-30597aed587e}, !- Thermal Zone Name
  ,                                       !- Part of Total Floor Area
  ,                                       !- Design Specification Outdoor Air Object Name
  ,                                       !- Building Unit Name
  692.06373070848;                        !- Volume {m3}

OS:Schedule:Ruleset,
  {646f863f-37ed-484e-8beb-bf8c230a778d}, !- Handle
  heating setpoint,                       !- Name
  {204564c7-7a3b-46d5-9c4d-5062470b92a7}, !- Schedule Type Limits Name
  {02053dcd-3f0a-40b7-9a80-562742dd187a}; !- Default Day Schedule Name

OS:Schedule:Day,
  {02053dcd-3f0a-40b7-9a80-562742dd187a}, !- Handle
  heating setpoint default day,           !- Name
  {204564c7-7a3b-46d5-9c4d-5062470b92a7}, !- Schedule Type Limits Name
  ,                                       !- Interpolate to Timestep
  24,                                     !- Hour 1
  0,                                      !- Minute 1
  0;                                      !- Value Until Time 1

OS:Schedule:Rule,
  {7f9949e9-a036-4013-b76f-d45f784ee883}, !- Handle
  heating setpoint allday rule,           !- Name
  {646f863f-37ed-484e-8beb-bf8c230a778d}, !- Schedule Ruleset Name
  0,                                      !- Rule Order
  {d13b9593-760d-4417-8ea1-14571a5e7f7a}, !- Day Schedule Name
  Yes,                                    !- Apply Sunday
  Yes,                                    !- Apply Monday
  Yes,                                    !- Apply Tuesday
  Yes,                                    !- Apply Wednesday
  Yes,                                    !- Apply Thursday
  Yes,                                    !- Apply Friday
  Yes,                                    !- Apply Saturday
  DateRange,                              !- Date Specification Type
  1,                                      !- Start Month
  1,                                      !- Start Day
  12,                                     !- End Month
  31;                                     !- End Day

OS:Schedule:Day,
  {d13b9593-760d-4417-8ea1-14571a5e7f7a}, !- Handle
  heating setpoint day,                   !- Name
  {204564c7-7a3b-46d5-9c4d-5062470b92a7}, !- Schedule Type Limits Name
  ,                                       !- Interpolate to Timestep
  24,                                     !- Hour 1
  0,                                      !- Minute 1
  20;                                     !- Value Until Time 1

OS:Schedule:Ruleset,
  {c71ba381-9d24-494f-85e1-f70ce7fd096a}, !- Handle
  cooling setpoint,                       !- Name
  {204564c7-7a3b-46d5-9c4d-5062470b92a7}, !- Schedule Type Limits Name
  {0b846d41-88cf-4f5a-a1b4-dad918c454f2}; !- Default Day Schedule Name

OS:Schedule:Day,
  {0b846d41-88cf-4f5a-a1b4-dad918c454f2}, !- Handle
  cooling setpoint default day,           !- Name
  {204564c7-7a3b-46d5-9c4d-5062470b92a7}, !- Schedule Type Limits Name
  ,                                       !- Interpolate to Timestep
  24,                                     !- Hour 1
  0,                                      !- Minute 1
  0;                                      !- Value Until Time 1

OS:Schedule:Rule,
  {e9962da5-ac97-4aee-b98a-ea1429ac672c}, !- Handle
  cooling setpoint allday rule,           !- Name
  {c71ba381-9d24-494f-85e1-f70ce7fd096a}, !- Schedule Ruleset Name
  0,                                      !- Rule Order
  {28bf0da9-da30-4035-ac86-5da7a284949b}, !- Day Schedule Name
  Yes,                                    !- Apply Sunday
  Yes,                                    !- Apply Monday
  Yes,                                    !- Apply Tuesday
  Yes,                                    !- Apply Wednesday
  Yes,                                    !- Apply Thursday
  Yes,                                    !- Apply Friday
  Yes,                                    !- Apply Saturday
  DateRange,                              !- Date Specification Type
  1,                                      !- Start Month
  1,                                      !- Start Day
  12,                                     !- End Month
  31;                                     !- End Day

OS:Schedule:Day,
  {28bf0da9-da30-4035-ac86-5da7a284949b}, !- Handle
  cooling setpoint day,                   !- Name
  {204564c7-7a3b-46d5-9c4d-5062470b92a7}, !- Schedule Type Limits Name
  ,                                       !- Interpolate to Timestep
  24,                                     !- Hour 1
  0,                                      !- Minute 1
  25.5555555555556;                       !- Value Until Time 1

OS:ThermostatSetpoint:DualSetpoint,
  {959d16fb-6fe6-4881-99d0-9e47e8b2228d}, !- Handle
  conditioned space temperature setpoint, !- Name
  {646f863f-37ed-484e-8beb-bf8c230a778d}, !- Heating Setpoint Temperature Schedule Name
  {c71ba381-9d24-494f-85e1-f70ce7fd096a}, !- Cooling Setpoint Temperature Schedule Name
  0;                                      !- Temperature Difference Between Cutout And Setpoint {deltaC}

OS:ScheduleTypeLimits,
  {204564c7-7a3b-46d5-9c4d-5062470b92a7}, !- Handle
  Temperature,                            !- Name
  ,                                       !- Lower Limit Value
  ,                                       !- Upper Limit Value
  Continuous,                             !- Numeric Type
  Temperature;                            !- Unit Type

OS:Surface,
  {f86d25e1-d7fb-452c-aa44-aeb569200005}, !- Handle
  Roof1,                                  !- Name
  RoofCeiling,                            !- Surface Type
  {490132ca-afd6-4052-b695-ebc887596731}, !- Construction Name
  {1b924320-291f-4867-833b-403916c31981}, !- Space Name
  Outdoors,                               !- Outside Boundary Condition
  ,                                       !- Outside Boundary Condition Object
  SunExposed,                             !- Sun Exposure
  WindExposed,                            !- Wind Exposure
  ,                                       !- View Factor to Ground
  ,                                       !- Number of Vertices
  -26.9347048849634, 58.0557891618865, 2.4384, !- X,Y,Z Vertex 1 {m}
  -26.9347048849634, 46.7895631136661, 8.0715130241102, !- X,Y,Z Vertex 2 {m}
  -14.3386812381136, 46.7895631136661, 8.0715130241102, !- X,Y,Z Vertex 3 {m}
  -14.3386812381136, 58.0557891618865, 2.4384; !- X,Y,Z Vertex 4 {m}

OS:AdditionalProperties,
  {cc07a25e-fe3c-4f52-8a0a-f5dd1902efc4}, !- Handle
  {f86d25e1-d7fb-452c-aa44-aeb569200005}, !- Object Name
  Length,                                 !- Feature Name 1
  Double,                                 !- Feature Data Type 1
  41.325536899113608,                     !- Feature Value 1
  Width,                                  !- Feature Name 2
  Double,                                 !- Feature Data Type 2
  41.325536899113601,                     !- Feature Value 2
  Azimuth,                                !- Feature Name 3
  Integer,                                !- Feature Data Type 3
  0,                                      !- Feature Value 3
  Tilt,                                   !- Feature Name 4
  Double,                                 !- Feature Data Type 4
  0.5,                                    !- Feature Value 4
  SurfaceType,                            !- Feature Name 5
  String,                                 !- Feature Data Type 5
  Roof;                                   !- Feature Value 5

OS:ThermalZone,
  {a2665534-ec3e-477e-bc9b-2992b5ae08cf}, !- Handle
  attic - vented,                         !- Name
  1,                                      !- Multiplier
  ,                                       !- Ceiling Height {m}
  356.390921899745,                       !- Volume {m3}
  ,                                       !- Floor Area {m2}
  ,                                       !- Zone Inside Convection Algorithm
  ,                                       !- Zone Outside Convection Algorithm
  ,                                       !- Zone Conditioning Equipment List Name
  {829768a7-df26-46e4-812d-b073ce3de028}, !- Zone Air Inlet Port List
  {009b7a44-434e-4126-ae3e-6ea115c84085}, !- Zone Air Exhaust Port List
  {9cf3b0a6-7125-4612-95f0-3e818ead9779}, !- Zone Air Node Name
  {f2ed4f94-1bb9-4444-8136-7622d4a00509}, !- Zone Return Air Port List
  ,                                       !- Primary Daylighting Control Name
  ,                                       !- Fraction of Zone Controlled by Primary Daylighting Control
  ,                                       !- Secondary Daylighting Control Name
  ,                                       !- Fraction of Zone Controlled by Secondary Daylighting Control
  ,                                       !- Illuminance Map Name
  ,                                       !- Group Rendering Name
  ,                                       !- Thermostat Name
  No;                                     !- Use Ideal Air Loads

OS:Node,
  {f6b1c6b6-09f6-43fd-be24-00341f344cdb}, !- Handle
  Node 2,                                 !- Name
  {9cf3b0a6-7125-4612-95f0-3e818ead9779}, !- Inlet Port
  ;                                       !- Outlet Port

OS:Connection,
  {9cf3b0a6-7125-4612-95f0-3e818ead9779}, !- Handle
  {a2665534-ec3e-477e-bc9b-2992b5ae08cf}, !- Source Object
  11,                                     !- Outlet Port
  {f6b1c6b6-09f6-43fd-be24-00341f344cdb}, !- Target Object
  2;                                      !- Inlet Port

OS:PortList,
  {829768a7-df26-46e4-812d-b073ce3de028}, !- Handle
  {a2665534-ec3e-477e-bc9b-2992b5ae08cf}; !- HVAC Component

OS:PortList,
  {009b7a44-434e-4126-ae3e-6ea115c84085}, !- Handle
  {a2665534-ec3e-477e-bc9b-2992b5ae08cf}; !- HVAC Component

OS:PortList,
  {f2ed4f94-1bb9-4444-8136-7622d4a00509}, !- Handle
  {a2665534-ec3e-477e-bc9b-2992b5ae08cf}; !- HVAC Component

OS:Sizing:Zone,
  {bd44ae10-2f7e-4129-bb29-4712aabf4f15}, !- Handle
  {a2665534-ec3e-477e-bc9b-2992b5ae08cf}, !- Zone or ZoneList Name
  SupplyAirTemperature,                   !- Zone Cooling Design Supply Air Temperature Input Method
  14,                                     !- Zone Cooling Design Supply Air Temperature {C}
  11.11,                                  !- Zone Cooling Design Supply Air Temperature Difference {deltaC}
  SupplyAirTemperature,                   !- Zone Heating Design Supply Air Temperature Input Method
  40,                                     !- Zone Heating Design Supply Air Temperature {C}
  11.11,                                  !- Zone Heating Design Supply Air Temperature Difference {deltaC}
  0.0085,                                 !- Zone Cooling Design Supply Air Humidity Ratio {kg-H2O/kg-air}
  0.008,                                  !- Zone Heating Design Supply Air Humidity Ratio {kg-H2O/kg-air}
  ,                                       !- Zone Heating Sizing Factor
  ,                                       !- Zone Cooling Sizing Factor
  DesignDay,                              !- Cooling Design Air Flow Method
  ,                                       !- Cooling Design Air Flow Rate {m3/s}
  ,                                       !- Cooling Minimum Air Flow per Zone Floor Area {m3/s-m2}
  ,                                       !- Cooling Minimum Air Flow {m3/s}
  ,                                       !- Cooling Minimum Air Flow Fraction
  DesignDay,                              !- Heating Design Air Flow Method
  ,                                       !- Heating Design Air Flow Rate {m3/s}
  ,                                       !- Heating Maximum Air Flow per Zone Floor Area {m3/s-m2}
  ,                                       !- Heating Maximum Air Flow {m3/s}
  ,                                       !- Heating Maximum Air Flow Fraction
  No,                                     !- Account for Dedicated Outdoor Air System
  NeutralSupplyAir,                       !- Dedicated Outdoor Air System Control Strategy
  autosize,                               !- Dedicated Outdoor Air Low Setpoint Temperature for Design {C}
  autosize,                               !- Dedicated Outdoor Air High Setpoint Temperature for Design {C}
  Sensible Load Only No Latent Load,      !- Zone Load Sizing Method
  HumidityRatioDifference,                !- Zone Latent Cooling Design Supply Air Humidity Ratio Input Method
  ,                                       !- Zone Dehumidification Design Supply Air Humidity Ratio {kgWater/kgDryAir}
  0.005,                                  !- Zone Cooling Design Supply Air Humidity Ratio Difference {kgWater/kgDryAir}
  HumidityRatioDifference,                !- Zone Latent Heating Design Supply Air Humidity Ratio Input Method
  ,                                       !- Zone Humidification Design Supply Air Humidity Ratio {kgWater/kgDryAir}
  0.005,                                  !- Zone Humidification Design Supply Air Humidity Ratio Difference {kgWater/kgDryAir}
  ,                                       !- Zone Humidistat Dehumidification Set Point Schedule Name
  ,                                       !- Zone Humidistat Humidification Set Point Schedule Name
  ,                                       !- Design Zone Air Distribution Effectiveness in Cooling Mode
  ,                                       !- Design Zone Air Distribution Effectiveness in Heating Mode
  ,                                       !- Design Zone Secondary Recirculation Fraction {dimensionless}
  ,                                       !- Design Minimum Zone Ventilation Efficiency {dimensionless}
  Coincident;                             !- Sizing Option

OS:ZoneHVAC:EquipmentList,
  {1b13e5c1-9195-4793-a660-cf981631aca1}, !- Handle
  Zone HVAC Equipment List 2,             !- Name
  {a2665534-ec3e-477e-bc9b-2992b5ae08cf}; !- Thermal Zone

OS:AdditionalProperties,
  {166a534e-ef51-4f1f-94c0-6b9c87a70359}, !- Handle
  {a2665534-ec3e-477e-bc9b-2992b5ae08cf}, !- Object Name
  ObjectType,                             !- Feature Name 1
  String,                                 !- Feature Data Type 1
  attic - vented;                         !- Feature Value 1

OS:Space,
  {1b924320-291f-4867-833b-403916c31981}, !- Handle
  attic - vented 1,                       !- Name
  ,                                       !- Space Type Name
  ,                                       !- Default Construction Set Name
  ,                                       !- Default Schedule Set Name
  ,                                       !- Direction of Relative North {deg}
  ,                                       !- X Origin {m}
  ,                                       !- Y Origin {m}
  ,                                       !- Z Origin {m}
  ,                                       !- Building Story Name
  {a2665534-ec3e-477e-bc9b-2992b5ae08cf}, !- Thermal Zone Name
  ,                                       !- Part of Total Floor Area
  ,                                       !- Design Specification Outdoor Air Object Name
  ,                                       !- Building Unit Name
  356.390921899745;                       !- Volume {m3}

OS:Material,
  {704cd3c6-2ecb-4880-98cc-7a6bcea146d8}, !- Handle
  asphalt or fiberglass shingles,         !- Name
  Rough,                                  !- Roughness
  0.00635,                                !- Thickness {m}
  0.162714,                               !- Conductivity {W/m-K}
  1121.4,                                 !- Density {kg/m3}
  1465.45,                                !- Specific Heat {J/kg-K}
  0.9,                                    !- Thermal Absorptance
  0.85,                                   !- Solar Absorptance