
OS:Version,
  {8deed0cb-da96-4b4d-b71e-375474cb3df7}, !- Handle
  3.9.0;                                  !- Version Identifier

OS:SimulationControl,
  {72a65115-8327-46e4-8e5e-44ce4bca438b}, !- Handle
  ,                                       !- Do Zone Sizing Calculation
  ,                                       !- Do System Sizing Calculation
  ,                                       !- Do Plant Sizing Calculation
  No;                                     !- Run Simulation for Sizing Periods

OS:Timestep,
  {b5673a24-436b-4389-85d3-e8afa5d570e9}, !- Handle
  1;                                      !- Number of Timesteps per Hour

OS:ShadowCalculation,
  {dea7ef24-ffaf-4eee-b7f3-fc1829165a21}, !- Handle
  PolygonClipping,                        !- Shading Calculation Method
  ,                                       !- Shading Calculation Update Frequency Method
  20,                                     !- Shading Calculation Update Frequency
  200,                                    !- Maximum Figures in Shadow Overlap Calculations
  ,                                       !- Polygon Clipping Algorithm
  512,                                    !- Pixel Counting Resolution
  ,                                       !- Sky Diffuse Modeling Algorithm
  No,                                     !- Output External Shading Calculation Results
  No,                                     !- Disable Self-Shading Within Shading Zone Groups
  No;                                     !- Disable Self-Shading From Shading Zone Groups to Other Zones

OS:SurfaceConvectionAlgorithm:Outside,
  {b2c9f49b-2ee0-4c9b-9850-7ab44e366ed2}, !- Handle
  DOE-2;                                  !- Algorithm

OS:SurfaceConvectionAlgorithm:Inside,
  {4e732dcb-7590-4787-bddc-8c54a3dd071d}, !- Handle
  TARP;                                   !- Algorithm

OS:ZoneCapacitanceMultiplier:ResearchSpecial,
  {02bfada7-fbcc-491f-854a-ae132cb0905e}, !- Handle
  7,                                      !- Temperature Capacity Multiplier
  15,                                     !- Humidity Capacity Multiplier
  ;                                       !- Carbon Dioxide Capacity Multiplier

OS:ConvergenceLimits,
  {d851854a-a620-4929-8df9-d3acfb412d13}, !- Handle
  0;                                      !- Minimum System Timestep {minutes}

OS:RunPeriod,
  {04453c51-abf9-4e15-9c39-765f0594531c}, !- Handle
  Run Period 1,                           !- Name
  1,                                      !- Begin Month
  1,                                      !- Begin Day of Month
  12,                                     !- End Month
  31,                                     !- End Day of Month
  ,                                       !- Use Weather File Holidays and Special Days
  ,                                       !- Use Weather File Daylight Saving Period
  ,                                       !- Apply Weekend Holiday Rule
  ,                                       !- Use Weather File Rain Indicators
  ,                                       !- Use Weather File Snow Indicators
  ;                                       !- Number of Times Runperiod to be Repeated

OS:PerformancePrecisionTradeoffs,
  {5b3dad54-756c-4d7d-bf7a-73eed546cf8a}, !- Handle
  ,                                       !- Use Coil Direct Solutions
  CarrollMRT;                             !- Zone Radiant Exchange Algorithm

OS:WeatherFile,
  {f2462ff6-2234-4889-9dc7-11050fb32cff}, !- Handle
  Buffalo Niagara Intl Ap,                !- City
  NY,                                     !- State Province Region
  USA,                                    !- Country
  TMY3,                                   !- Data Source
  725280,                                 !- WMO Number
  42.93,                                  !- Latitude {deg}
  -78.73,                                 !- Longitude {deg}
  -5,                                     !- Time Zone {hr}
  215,                                    !- Elevation {m}
  /Users/nmoore/github/urbanopt-example-geojson-project/example_project/weather/USA_NY_Buffalo-Greater.Buffalo.Intl.AP.725280_TMY3.epw, !- Url
  6B50E0FF,                               !- Checksum
  ,                                       !- Start Date Actual Year
  Sunday;                                 !- Start Day of Week

OS:YearDescription,
  {cc31dd01-8d07-4ee0-a6f4-1e69d13317bf}, !- Handle
  2007,                                   !- Calendar Year
  ,                                       !- Day of Week for Start Day
  ;                                       !- Is Leap Year

OS:Site,
  {910be482-095b-43b1-99c6-14eb9a5dd595}, !- Handle
  Buffalo Niagara Intl Ap_NY,             !- Name
  42.93,                                  !- Latitude {deg}
  -78.73,                                 !- Longitude {deg}
  -5,                                     !- Time Zone {hr}
  215,                                    !- Elevation {m}
  Suburbs,                                !- Terrain
  Yes;                                    !- Keep Site Location Information

OS:RunPeriodControl:DaylightSavingTime,
  {3dd301dc-b725-45b0-a5aa-d709652652e5}, !- Handle
  Mar 12,                                 !- Start Date
  Nov 5;                                  !- End Date

OS:Site:GroundTemperature:Shallow,
  {137205f0-efbc-4f56-beea-1fe4ed00224c}, !- Handle
  4.30207395723828,                       !- January Surface Ground Temperature {C}
  2.29327249652502,                       !- February Surface Ground Temperature {C}
  2.13240047156047,                       !- March Surface Ground Temperature {C}
  3.08567940719286,                       !- April Surface Ground Temperature {C}
  6.91256312497526,                       !- May Surface Ground Temperature {C}
  10.7216195949507,                       !- June Surface Ground Temperature {C}
  14.0238679822574,                       !- July Surface Ground Temperature {C}
  16.1157611184724,                       !- August Surface Ground Temperature {C}
  16.2934789303462,                       !- September Surface Ground Temperature {C}
  14.5920754632847,                       !- October Surface Ground Temperature {C}
  11.374036348653,                        !- November Surface Ground Temperature {C}
  7.68182621661674;                       !- December Surface Ground Temperature {C}

OS:ThermalZone,
  {c9c6d64c-ed35-4b2d-bde0-4ff0867d5f50}, !- Handle
  conditioned space,                      !- Name
  1,                                      !- Multiplier
  ,                                       !- Ceiling Height {m}
  692.06373070848,                        !- Volume {m3}
  ,                                       !- Floor Area {m2}
  ,                                       !- Zone Inside Convection Algorithm
  ,                                       !- Zone Outside Convection Algorithm
  ,                                       !- Zone Conditioning Equipment List Name
  {84615b2c-d21f-43ff-8594-161a60001d0d}, !- Zone Air Inlet Port List
  {33db1448-c407-40bf-a85d-5936d181ff5b}, !- Zone Air Exhaust Port List
  {8cb229e1-2069-4551-82f0-87652ecd1502}, !- Zone Air Node Name
  {1ab1e5ff-47d7-44ac-8ce9-f911125bb9fa}, !- Zone Return Air Port List
  ,                                       !- Primary Daylighting Control Name
  ,                                       !- Fraction of Zone Controlled by Primary Daylighting Control
  ,                                       !- Secondary Daylighting Control Name
  ,                                       !- Fraction of Zone Controlled by Secondary Daylighting Control
  ,                                       !- Illuminance Map Name
  ,                                       !- Group Rendering Name
  {f84b83b3-1377-4106-84db-dc44aa60389f}, !- Thermostat Name
  No;                                     !- Use Ideal Air Loads

OS:Node,
  {f8e7d20a-21d4-4589-adcd-e5d4a2719445}, !- Handle
  Node 1,                                 !- Name
  {8cb229e1-2069-4551-82f0-87652ecd1502}, !- Inlet Port
  ;                                       !- Outlet Port

OS:Connection,
  {8cb229e1-2069-4551-82f0-87652ecd1502}, !- Handle
  {c9c6d64c-ed35-4b2d-bde0-4ff0867d5f50}, !- Source Object
  11,                                     !- Outlet Port
  {f8e7d20a-21d4-4589-adcd-e5d4a2719445}, !- Target Object
  2;                                      !- Inlet Port

OS:PortList,
  {84615b2c-d21f-43ff-8594-161a60001d0d}, !- Handle
  {c9c6d64c-ed35-4b2d-bde0-4ff0867d5f50}, !- HVAC Component
  {92e4255b-5249-4abe-b247-4b23fca59c04}; !- Port 1

OS:PortList,
  {33db1448-c407-40bf-a85d-5936d181ff5b}, !- Handle
  {c9c6d64c-ed35-4b2d-bde0-4ff0867d5f50}; !- HVAC Component

OS:PortList,
  {1ab1e5ff-47d7-44ac-8ce9-f911125bb9fa}, !- Handle
  {c9c6d64c-ed35-4b2d-bde0-4ff0867d5f50}, !- HVAC Component
  {8f6ba4bc-6d74-4056-a077-de7d69d3274c}; !- Port 1

OS:Sizing:Zone,
  {a03e36fb-1a8f-43b2-a84f-d9e97e056843}, !- Handle
  {c9c6d64c-ed35-4b2d-bde0-4ff0867d5f50}, !- Zone or ZoneList Name
  SupplyAirTemperature,                   !- Zone Cooling Design Supply Air Temperature Input Method
  14,                                     !- Zone Cooling Design Supply Air Temperature {C}
  11.11,                                  !- Zone Cooling Design Supply Air Temperature Difference {deltaC}
  SupplyAirTemperature,                   !- Zone Heating Design Supply Air Temperature Input Method
  40,                                     !- Zone Heating Design Supply Air Temperature {C}
  11.11,                                  !- Zone Heating Design Supply Air Temperature Difference {deltaC}
  0.0085,                                 !- Zone Cooling Design Supply Air Humidity Ratio {kg-H2O/kg-air}
  0.008,                                  !- Zone Heating Design Supply Air Humidity Ratio {kg-H2O/kg-air}
  ,                                       !- Zone Heating Sizing Factor
  ,                                       !- Zone Cooling Sizing Factor
  DesignDay,                              !- Cooling Design Air Flow Method
  ,                                       !- Cooling Design Air Flow Rate {m3/s}
  ,                                       !- Cooling Minimum Air Flow per Zone Floor Area {m3/s-m2}
  ,                                       !- Cooling Minimum Air Flow {m3/s}
  ,                                       !- Cooling Minimum Air Flow Fraction
  DesignDay,                              !- Heating Design Air Flow Method
  ,                                       !- Heating Design Air Flow Rate {m3/s}
  ,                                       !- Heating Maximum Air Flow per Zone Floor Area {m3/s-m2}
  ,                                       !- Heating Maximum Air Flow {m3/s}
  ,                                       !- Heating Maximum Air Flow Fraction
  No,                                     !- Account for Dedicated Outdoor Air System
  NeutralSupplyAir,                       !- Dedicated Outdoor Air System Control Strategy
  autosize,                               !- Dedicated Outdoor Air Low Setpoint Temperature for Design {C}
  autosize,                               !- Dedicated Outdoor Air High Setpoint Temperature for Design {C}
  Sensible Load Only No Latent Load,      !- Zone Load Sizing Method
  HumidityRatioDifference,                !- Zone Latent Cooling Design Supply Air Humidity Ratio Input Method
  ,                                       !- Zone Dehumidification Design Supply Air Humidity Ratio {kgWater/kgDryAir}
  0.005,                                  !- Zone Cooling Design Supply Air Humidity Ratio Difference {kgWater/kgDryAir}
  HumidityRatioDifference,                !- Zone Latent Heating Design Supply Air Humidity Ratio Input Method
  ,                                       !- Zone Humidification Design Supply Air Humidity Ratio {kgWater/kgDryAir}
  0.005,                                  !- Zone Humidification Design Supply Air Humidity Ratio Difference {kgWater/kgDryAir}
  ,                                       !- Zone Humidistat Dehumidification Set Point Schedule Name
  ,                                       !- Zone Humidistat Humidification Set Point Schedule Name
  ,                                       !- Design Zone Air Distribution Effectiveness in Cooling Mode
  ,                                       !- Design Zone Air Distribution Effectiveness in Heating Mode
  ,                                       !- Design Zone Secondary Recirculation Fraction {dimensionless}
  ,                                       !- Design Minimum Zone Ventilation Efficiency {dimensionless}
  Coincident;                             !- Sizing Option

OS:ZoneHVAC:EquipmentList,
  {e920c233-47fd-43c4-8273-5cdaf0ae497c}, !- Handle
  Zone HVAC Equipment List 1,             !- Name
  {c9c6d64c-ed35-4b2d-bde0-4ff0867d5f50}, !- Thermal Zone
  ,                                       !- Load Distribution Scheme
  {c0193f53-71fa-472f-bc20-7ee40895e0d4}, !- Zone Equipment 1
  1,                                      !- Zone Equipment Cooling Sequence 1
  1,                                      !- Zone Equipment Heating or No-Load Sequence 1
  {1c4cc7d4-09c5-4b98-81ba-54e76d3214d4}, !- Zone Equipment Sequential Cooling Fraction Schedule Name 1
  {9901d6da-d275-47a3-ba07-d33a2646cd64}; !- Zone Equipment Sequential Heating Fraction Schedule Name 1

OS:AdditionalProperties,
  {8c8170e9-b55f-42a5-8f8a-c65838dea340}, !- Handle
  {c9c6d64c-ed35-4b2d-bde0-4ff0867d5f50}, !- Object Name
  ObjectType,                             !- Feature Name 1
  String,                                 !- Feature Data Type 1
  conditioned space;                      !- Feature Value 1

OS:Space,
  {3dcf0062-6b4c-4fb1-97d9-50708c9e8048}, !- Handle
  conditioned space 1,                    !- Name
  ,                                       !- Space Type Name
  ,                                       !- Default Construction Set Name
  ,                                       !- Default Schedule Set Name
  ,                                       !- Direction of Relative North {deg}
  ,                                       !- X Origin {m}
  ,                                       !- Y Origin {m}
  ,                                       !- Z Origin {m}
  ,                                       !- Building Story Name
  {c9c6d64c-ed35-4b2d-bde0-4ff0867d5f50}, !- Thermal Zone Name
  ,                                       !- Part of Total Floor Area
  ,                                       !- Design Specification Outdoor Air Object Name
  ,                                       !- Building Unit Name
  692.06373070848;                        !- Volume {m3}

OS:Schedule:Ruleset,
  {369862cb-14f4-4b7c-9827-6860bbc4449d}, !- Handle
  heating setpoint,                       !- Name
  {e4ad92ba-7d4a-4141-aa64-aca44fdcb776}, !- Schedule Type Limits Name
  {1a51c5f1-6058-4d16-9bed-7652658f3234}; !- Default Day Schedule Name

OS:Schedule:Day,
  {1a51c5f1-6058-4d16-9bed-7652658f3234}, !- Handle
  heating setpoint default day,           !- Name
  {e4ad92ba-7d4a-4141-aa64-aca44fdcb776}, !- Schedule Type Limits Name
  ,                                       !- Interpolate to Timestep
  24,                                     !- Hour 1
  0,                                      !- Minute 1
  0;                                      !- Value Until Time 1

OS:Schedule:Rule,
  {b528068f-8f3a-4bbd-82a6-74653791671a}, !- Handle
  heating setpoint allday rule,           !- Name
  {369862cb-14f4-4b7c-9827-6860bbc4449d}, !- Schedule Ruleset Name
  0,                                      !- Rule Order
  {5f924957-c5d2-4293-b6dd-86aff5c0214e}, !- Day Schedule Name
  Yes,                                    !- Apply Sunday
  Yes,                                    !- Apply Monday
  Yes,                                    !- Apply Tuesday
  Yes,                                    !- Apply Wednesday
  Yes,                                    !- Apply Thursday
  Yes,                                    !- Apply Friday
  Yes,                                    !- Apply Saturday
  DateRange,                              !- Date Specification Type
  1,                                      !- Start Month
  1,                                      !- Start Day
  12,                                     !- End Month
  31;                                     !- End Day

OS:Schedule:Day,
  {5f924957-c5d2-4293-b6dd-86aff5c0214e}, !- Handle
  heating setpoint day,                   !- Name
  {e4ad92ba-7d4a-4141-aa64-aca44fdcb776}, !- Schedule Type Limits Name
  ,                                       !- Interpolate to Timestep
  24,                                     !- Hour 1
  0,                                      !- Minute 1
  20;                                     !- Value Until Time 1

OS:Schedule:Ruleset,
  {6b442da5-bdb8-4249-a4ac-01a23e569705}, !- Handle
  cooling setpoint,                       !- Name
  {e4ad92ba-7d4a-4141-aa64-aca44fdcb776}, !- Schedule Type Limits Name
  {15c12981-0aa5-497f-a6b8-55bc9d4c2286}; !- Default Day Schedule Name

OS:Schedule:Day,
  {15c12981-0aa5-497f-a6b8-55bc9d4c2286}, !- Handle
  cooling setpoint default day,           !- Name
  {e4ad92ba-7d4a-4141-aa64-aca44fdcb776}, !- Schedule Type Limits Name
  ,                                       !- Interpolate to Timestep
  24,                                     !- Hour 1
  0,                                      !- Minute 1
  0;                                      !- Value Until Time 1

OS:Schedule:Rule,
  {ae578a16-672c-48ac-a993-7db8faae611b}, !- Handle
  cooling setpoint allday rule,           !- Name
  {6b442da5-bdb8-4249-a4ac-01a23e569705}, !- Schedule Ruleset Name
  0,                                      !- Rule Order
  {542f6985-4fd4-487b-b03c-4044e6f02a3c}, !- Day Schedule Name
  Yes,                                    !- Apply Sunday
  Yes,                                    !- Apply Monday
  Yes,                                    !- Apply Tuesday
  Yes,                                    !- Apply Wednesday
  Yes,                                    !- Apply Thursday
  Yes,                                    !- Apply Friday
  Yes,                                    !- Apply Saturday
  DateRange,                              !- Date Specification Type
  1,                                      !- Start Month
  1,                                      !- Start Day
  12,                                     !- End Month
  31;                                     !- End Day

OS:Schedule:Day,
  {542f6985-4fd4-487b-b03c-4044e6f02a3c}, !- Handle
  cooling setpoint day,                   !- Name
  {e4ad92ba-7d4a-4141-aa64-aca44fdcb776}, !- Schedule Type Limits Name
  ,                                       !- Interpolate to Timestep
  24,                                     !- Hour 1
  0,                                      !- Minute 1
  25.5555555555556;                       !- Value Until Time 1

OS:ThermostatSetpoint:DualSetpoint,
  {f84b83b3-1377-4106-84db-dc44aa60389f}, !- Handle
  conditioned space temperature setpoint, !- Name
  {369862cb-14f4-4b7c-9827-6860bbc4449d}, !- Heating Setpoint Temperature Schedule Name
  {6b442da5-bdb8-4249-a4ac-01a23e569705}, !- Cooling Setpoint Temperature Schedule Name
  0;                                      !- Temperature Difference Between Cutout And Setpoint {deltaC}

OS:ScheduleTypeLimits,
  {e4ad92ba-7d4a-4141-aa64-aca44fdcb776}, !- Handle
  Temperature,                            !- Name
  ,                                       !- Lower Limit Value
  ,                                       !- Upper Limit Value
  Continuous,                             !- Numeric Type
  Temperature;                            !- Unit Type

OS:Surface,
  {577c2925-3982-4298-a321-63ae571b1c31}, !- Handle
  Roof1,                                  !- Name
  RoofCeiling,                            !- Surface Type
  {90b8b2af-ea1c-4b6a-8eb5-3ab9190fa9ce}, !- Construction Name
  {6f9202fd-3ab9-4326-b1e1-13ec0831d88b}, !- Space Name
  Outdoors,                               !- Outside Boundary Condition
  ,                                       !- Outside Boundary Condition Object
  SunExposed,                             !- Sun Exposure
  WindExposed,                            !- Wind Exposure
  ,                                       !- View Factor to Ground
  ,                                       !- Number of Vertices
  -26.9397848849634, 58.0608691618865, 2.4384, !- X,Y,Z Vertex 1 {m}
  -26.9397848849634, 46.7946431136661, 8.0715130241102, !- X,Y,Z Vertex 2 {m}
  -14.3437612381136, 46.7946431136661, 8.0715130241102, !- X,Y,Z Vertex 3 {m}
  -14.3437612381136, 58.0608691618865, 2.4384; !- X,Y,Z Vertex 4 {m}

OS:AdditionalProperties,
  {3c35c114-da4f-46c4-9013-34a111aae361}, !- Handle
  {577c2925-3982-4298-a321-63ae571b1c31}, !- Object Name
  Length,                                 !- Feature Name 1
  Double,                                 !- Feature Data Type 1
  41.325536899113608,                     !- Feature Value 1
  Width,                                  !- Feature Name 2
  Double,                                 !- Feature Data Type 2
  41.325536899113601,                     !- Feature Value 2
  Azimuth,                                !- Feature Name 3
  Integer,                                !- Feature Data Type 3
  0,                                      !- Feature Value 3
  Tilt,                                   !- Feature Name 4
  Double,                                 !- Feature Data Type 4
  0.5,                                    !- Feature Value 4
  SurfaceType,                            !- Feature Name 5
  String,                                 !- Feature Data Type 5
  Roof;                                   !- Feature Value 5

OS:ThermalZone,
  {62efbb07-b53a-4774-bf15-b2cb9aa22d38}, !- Handle
  attic - vented,                         !- Name
  1,                                      !- Multiplier
  ,                                       !- Ceiling Height {m}
  356.389957095237,                       !- Volume {m3}
  ,                                       !- Floor Area {m2}
  ,                                       !- Zone Inside Convection Algorithm
  ,                                       !- Zone Outside Convection Algorithm
  ,                                       !- Zone Conditioning Equipment List Name
  {3ecda914-4d23-4b4d-976e-075664e52a75}, !- Zone Air Inlet Port List
  {4dc3d0e2-e1fd-47ac-a474-6658e8d64bf7}, !- Zone Air Exhaust Port List
  {c7587805-b972-4563-a7b4-9c89ff0cfd4d}, !- Zone Air Node Name
  {701df5ab-3cd1-4569-a587-0571a4963c15}, !- Zone Return Air Port List
  ,                                       !- Primary Daylighting Control Name
  ,                                       !- Fraction of Zone Controlled by Primary Daylighting Control
  ,                                       !- Secondary Daylighting Control Name
  ,                                       !- Fraction of Zone Controlled by Secondary Daylighting Control
  ,                                       !- Illuminance Map Name
  ,                                       !- Group Rendering Name
  ,                                       !- Thermostat Name
  No;                                     !- Use Ideal Air Loads

OS:Node,
  {4f41d506-ce32-45e8-9834-974b2404ffcc}, !- Handle
  Node 2,                                 !- Name
  {c7587805-b972-4563-a7b4-9c89ff0cfd4d}, !- Inlet Port
  ;                                       !- Outlet Port

OS:Connection,
  {c7587805-b972-4563-a7b4-9c89ff0cfd4d}, !- Handle
  {62efbb07-b53a-4774-bf15-b2cb9aa22d38}, !- Source Object
  11,                                     !- Outlet Port
  {4f41d506-ce32-45e8-9834-974b2404ffcc}, !- Target Object
  2;                                      !- Inlet Port

OS:PortList,
  {3ecda914-4d23-4b4d-976e-075664e52a75}, !- Handle
  {62efbb07-b53a-4774-bf15-b2cb9aa22d38}; !- HVAC Component

OS:PortList,
  {4dc3d0e2-e1fd-47ac-a474-6658e8d64bf7}, !- Handle
  {62efbb07-b53a-4774-bf15-b2cb9aa22d38}; !- HVAC Component

OS:PortList,
  {701df5ab-3cd1-4569-a587-0571a4963c15}, !- Handle
  {62efbb07-b53a-4774-bf15-b2cb9aa22d38}; !- HVAC Component

OS:Sizing:Zone,
  {fec1f2ad-4916-4c6c-8df7-80e1f9cf0774}, !- Handle
  {62efbb07-b53a-4774-bf15-b2cb9aa22d38}, !- Zone or ZoneList Name
  SupplyAirTemperature,                   !- Zone Cooling Design Supply Air Temperature Input Method
  14,                                     !- Zone Cooling Design Supply Air Temperature {C}
  11.11,                                  !- Zone Cooling Design Supply Air Temperature Difference {deltaC}
  SupplyAirTemperature,                   !- Zone Heating Design Supply Air Temperature Input Method
  40,                                     !- Zone Heating Design Supply Air Temperature {C}
  11.11,                                  !- Zone Heating Design Supply Air Temperature Difference {deltaC}
  0.0085,                                 !- Zone Cooling Design Supply Air Humidity Ratio {kg-H2O/kg-air}
  0.008,                                  !- Zone Heating Design Supply Air Humidity Ratio {kg-H2O/kg-air}
  ,                                       !- Zone Heating Sizing Factor
  ,                                       !- Zone Cooling Sizing Factor
  DesignDay,                              !- Cooling Design Air Flow Method
  ,                                       !- Cooling Design Air Flow Rate {m3/s}
  ,                                       !- Cooling Minimum Air Flow per Zone Floor Area {m3/s-m2}
  ,                                       !- Cooling Minimum Air Flow {m3/s}
  ,                                       !- Cooling Minimum Air Flow Fraction
  DesignDay,                              !- Heating Design Air Flow Method
  ,                                       !- Heating Design Air Flow Rate {m3/s}
  ,                                       !- Heating Maximum Air Flow per Zone Floor Area {m3/s-m2}
  ,                                       !- Heating Maximum Air Flow {m3/s}
  ,                                       !- Heating Maximum Air Flow Fraction
  No,                                     !- Account for Dedicated Outdoor Air System
  NeutralSupplyAir,                       !- Dedicated Outdoor Air System Control Strategy
  autosize,                               !- Dedicated Outdoor Air Low Setpoint Temperature for Design {C}
  autosize,                               !- Dedicated Outdoor Air High Setpoint Temperature for Design {C}
  Sensible Load Only No Latent Load,      !- Zone Load Sizing Method
  HumidityRatioDifference,                !- Zone Latent Cooling Design Supply Air Humidity Ratio Input Method
  ,                                       !- Zone Dehumidification Design Supply Air Humidity Ratio {kgWater/kgDryAir}
  0.005,                                  !- Zone Cooling Design Supply Air Humidity Ratio Difference {kgWater/kgDryAir}
  HumidityRatioDifference,                !- Zone Latent Heating Design Supply Air Humidity Ratio Input Method
  ,                                       !- Zone Humidification Design Supply Air Humidity Ratio {kgWater/kgDryAir}
  0.005,                                  !- Zone Humidification Design Supply Air Humidity Ratio Difference {kgWater/kgDryAir}
  ,                                       !- Zone Humidistat Dehumidification Set Point Schedule Name
  ,                                       !- Zone Humidistat Humidification Set Point Schedule Name
  ,                                       !- Design Zone Air Distribution Effectiveness in Cooling Mode
  ,                                       !- Design Zone Air Distribution Effectiveness in Heating Mode
  ,                                       !- Design Zone Secondary Recirculation Fraction {dimensionless}
  ,                                       !- Design Minimum Zone Ventilation Efficiency {dimensionless}
  Coincident;                             !- Sizing Option

OS:ZoneHVAC:EquipmentList,
  {ea0f798d-2259-4e2d-98fb-4d49d4041bae}, !- Handle
  Zone HVAC Equipment List 2,             !- Name
  {62efbb07-b53a-4774-bf15-b2cb9aa22d38}; !- Thermal Zone

OS:AdditionalProperties,
  {4860c8b1-bba6-4d18-9d46-f95a01ea6342}, !- Handle
  {62efbb07-b53a-4774-bf15-b2cb9aa22d38}, !- Object Name
  ObjectType,                             !- Feature Name 1
  String,                                 !- Feature Data Type 1
  attic - vented;                         !- Feature Value 1

OS:Space,
  {6f9202fd-3ab9-4326-b1e1-13ec0831d88b}, !- Handle
  attic - vented 1,                       !- Name
  ,                                       !- Space Type Name
  ,                                       !- Default Construction Set Name
  ,                                       !- Default Schedule Set Name
  ,                                       !- Direction of Relative North {deg}
  ,                                       !- X Origin {m}
  ,                                       !- Y Origin {m}
  ,                                       !- Z Origin {m}
  ,                                       !- Building Story Name
  {62efbb07-b53a-4774-bf15-b2cb9aa22d38}, !- Thermal Zone Name
  ,                                       !- Part of Total Floor Area
  ,                                       !- Design Specification Outdoor Air Object Name
  ,                                       !- Building Unit Name
  356.389957095237;                       !- Volume {m3}

OS:Material,
  {bc10a4c1-c2be-453b-b602-d8edf79f4437}, !- Handle
  asphalt or fiberglass shingles,         !- Name
  Rough,                                  !- Roughness
  0.00635,                                !- Thickness {m}
  0.162714,                               !- Conductivity {W/m-K}
  1121.4,                                 !- Density {kg/m3}
  1465.45,                                !- Specific Heat {J/kg-K}
  0.9,                                    !- Thermal Absorptance
  0.85,                                   !- Solar Absorptance