
OS:Version,
  {7cf57fea-ebc0-47ed-ac1f-5efd4a0cd44f}, !- Handle
  3.10.0;                                 !- Version Identifier

OS:SimulationControl,
  {50291ada-dd90-4401-9230-e67bd904558a}, !- Handle
  ,                                       !- Do Zone Sizing Calculation
  ,                                       !- Do System Sizing Calculation
  ,                                       !- Do Plant Sizing Calculation
  No;                                     !- Run Simulation for Sizing Periods

OS:Timestep,
  {461f5e1e-afd9-4a72-bc49-efb911d76f6f}, !- Handle
  1;                                      !- Number of Timesteps per Hour

OS:ShadowCalculation,
  {8d853c95-0004-4e71-aa87-f0129342522c}, !- Handle
  PolygonClipping,                        !- Shading Calculation Method
  ,                                       !- Shading Calculation Update Frequency Method
  20,                                     !- Shading Calculation Update Frequency
  200,                                    !- Maximum Figures in Shadow Overlap Calculations
  ,                                       !- Polygon Clipping Algorithm
  512,                                    !- Pixel Counting Resolution
  ,                                       !- Sky Diffuse Modeling Algorithm
  No,                                     !- Output External Shading Calculation Results
  No,                                     !- Disable Self-Shading Within Shading Zone Groups
  No;                                     !- Disable Self-Shading From Shading Zone Groups to Other Zones

OS:SurfaceConvectionAlgorithm:Outside,
  {43db56c0-aa49-4f51-8f47-d9ba29776147}, !- Handle
  DOE-2;                                  !- Algorithm

OS:SurfaceConvectionAlgorithm:Inside,
  {23f50819-8e49-4ac2-abdb-3f14fe37e920}, !- Handle
  TARP;                                   !- Algorithm

OS:ZoneCapacitanceMultiplier:ResearchSpecial,
  {18f0627d-094c-4278-8683-ac00e202dc73}, !- Handle
  7,                                      !- Temperature Capacity Multiplier
  15,                                     !- Humidity Capacity Multiplier
  ;                                       !- Carbon Dioxide Capacity Multiplier

OS:ConvergenceLimits,
  {77cf0968-4d0a-4eed-a3dd-aa34c1f38735}, !- Handle
  0;                                      !- Minimum System Timestep {minutes}

OS:RunPeriod,
  {534d1c08-6397-4176-ac71-dda317d75a26}, !- Handle
  Run Period 1,                           !- Name
  1,                                      !- Begin Month
  1,                                      !- Begin Day of Month
  12,                                     !- End Month
  31,                                     !- End Day of Month
  ,                                       !- Use Weather File Holidays and Special Days
  ,                                       !- Use Weather File Daylight Saving Period
  ,                                       !- Apply Weekend Holiday Rule
  ,                                       !- Use Weather File Rain Indicators
  ,                                       !- Use Weather File Snow Indicators
  ;                                       !- Number of Times Runperiod to be Repeated

OS:PerformancePrecisionTradeoffs,
  {7b102c87-6549-4077-84d7-762045322eac}, !- Handle
  ,                                       !- Use Coil Direct Solutions
  CarrollMRT;                             !- Zone Radiant Exchange Algorithm

OS:WeatherFile,
  {d4037bb8-267c-4554-98e7-3e3b206aeefc}, !- Handle
  Buffalo Niagara Intl Ap,                !- City
  NY,                                     !- State Province Region
  USA,                                    !- Country
  TMY3,                                   !- Data Source
  725280,                                 !- WMO Number
  42.93,                                  !- Latitude {deg}
  -78.73,                                 !- Longitude {deg}
  -5,                                     !- Time Zone {hr}
  215,                                    !- Elevation {m}
  /Users/nmoore/github/urbanopt-example-geojson-project/example_project/weather/USA_NY_Buffalo-Greater.Buffalo.Intl.AP.725280_TMY3.epw, !- Url
  6B50E0FF,                               !- Checksum
  ,                                       !- Start Date Actual Year
  Sunday;                                 !- Start Day of Week

OS:YearDescription,
  {219c9f6e-4704-4eca-95d7-494ffe297287}, !- Handle
  2007,                                   !- Calendar Year
  ,                                       !- Day of Week for Start Day
  ;                                       !- Is Leap Year

OS:Site,
  {23b3e334-221a-48bf-afbd-06f2f9a520af}, !- Handle
  Buffalo Niagara Intl Ap_NY,             !- Name
  42.93,                                  !- Latitude {deg}
  -78.73,                                 !- Longitude {deg}
  -5,                                     !- Time Zone {hr}
  215,                                    !- Elevation {m}
  Suburbs,                                !- Terrain
  Yes;                                    !- Keep Site Location Information

OS:RunPeriodControl:DaylightSavingTime,
  {bb862ee0-cd6e-44bc-9e0a-31dc3fd4b2bc}, !- Handle
  Mar 12,                                 !- Start Date
  Nov 5;                                  !- End Date

OS:Site:GroundTemperature:Shallow,
  {f9910af1-f450-4cd7-bf2f-166d05077d93}, !- Handle
  4.30207395723828,                       !- January Surface Ground Temperature {C}
  2.29327249652502,                       !- February Surface Ground Temperature {C}
  2.13240047156047,                       !- March Surface Ground Temperature {C}
  3.08567940719286,                       !- April Surface Ground Temperature {C}
  6.91256312497526,                       !- May Surface Ground Temperature {C}
  10.7216195949507,                       !- June Surface Ground Temperature {C}
  14.0238679822574,                       !- July Surface Ground Temperature {C}
  16.1157611184724,                       !- August Surface Ground Temperature {C}
  16.2934789303462,                       !- September Surface Ground Temperature {C}
  14.5920754632847,                       !- October Surface Ground Temperature {C}
  11.374036348653,                        !- November Surface Ground Temperature {C}
  7.68182621661674;                       !- December Surface Ground Temperature {C}

OS:ThermalZone,
  {65d58ac7-622b-4395-8491-293cfb4d621f}, !- Handle
  conditioned space,                      !- Name
  1,                                      !- Multiplier
  ,                                       !- Ceiling Height {m}
  692.06373070848,                        !- Volume {m3}
  ,                                       !- Floor Area {m2}
  ,                                       !- Zone Inside Convection Algorithm
  ,                                       !- Zone Outside Convection Algorithm
  ,                                       !- Zone Conditioning Equipment List Name
  {4002ef0a-c483-4900-ad71-d1c4292789fa}, !- Zone Air Inlet Port List
  {2f185f1c-e972-47ff-b872-ed14a268e022}, !- Zone Air Exhaust Port List
  {f733a416-3d89-4023-a788-49d1c694ac0d}, !- Zone Air Node Name
  {68163dca-1ae6-4130-82d2-eb91576980f5}, !- Zone Return Air Port List
  ,                                       !- Primary Daylighting Control Name
  ,                                       !- Fraction of Zone Controlled by Primary Daylighting Control
  ,                                       !- Secondary Daylighting Control Name
  ,                                       !- Fraction of Zone Controlled by Secondary Daylighting Control
  ,                                       !- Illuminance Map Name
  ,                                       !- Group Rendering Name
  {1921a26e-fee0-4184-add1-830e2414785f}, !- Thermostat Name
  No;                                     !- Use Ideal Air Loads

OS:Node,
  {6afc5083-cc22-4e4c-af23-de6d98e8f52f}, !- Handle
  Node 1,                                 !- Name
  {f733a416-3d89-4023-a788-49d1c694ac0d}, !- Inlet Port
  ;                                       !- Outlet Port

OS:Connection,
  {f733a416-3d89-4023-a788-49d1c694ac0d}, !- Handle
  {65d58ac7-622b-4395-8491-293cfb4d621f}, !- Source Object
  11,                                     !- Outlet Port
  {6afc5083-cc22-4e4c-af23-de6d98e8f52f}, !- Target Object
  2;                                      !- Inlet Port

OS:PortList,
  {4002ef0a-c483-4900-ad71-d1c4292789fa}, !- Handle
  {65d58ac7-622b-4395-8491-293cfb4d621f}, !- HVAC Component
  {5e321d46-e81c-4371-993c-bc2c381ac7cc}; !- Port 1

OS:PortList,
  {2f185f1c-e972-47ff-b872-ed14a268e022}, !- Handle
  {65d58ac7-622b-4395-8491-293cfb4d621f}; !- HVAC Component

OS:PortList,
  {68163dca-1ae6-4130-82d2-eb91576980f5}, !- Handle
  {65d58ac7-622b-4395-8491-293cfb4d621f}, !- HVAC Component
  {0736ad0e-d264-4b04-a24a-c1a7d703792e}; !- Port 1

OS:Sizing:Zone,
  {c73ab71f-db11-4aa0-bd19-4206fdd89ae3}, !- Handle
  {65d58ac7-622b-4395-8491-293cfb4d621f}, !- Zone or ZoneList Name
  SupplyAirTemperature,                   !- Zone Cooling Design Supply Air Temperature Input Method
  14,                                     !- Zone Cooling Design Supply Air Temperature {C}
  11.11,                                  !- Zone Cooling Design Supply Air Temperature Difference {deltaC}
  SupplyAirTemperature,                   !- Zone Heating Design Supply Air Temperature Input Method
  40,                                     !- Zone Heating Design Supply Air Temperature {C}
  11.11,                                  !- Zone Heating Design Supply Air Temperature Difference {deltaC}
  0.0085,                                 !- Zone Cooling Design Supply Air Humidity Ratio {kg-H2O/kg-air}
  0.008,                                  !- Zone Heating Design Supply Air Humidity Ratio {kg-H2O/kg-air}
  ,                                       !- Zone Heating Sizing Factor
  ,                                       !- Zone Cooling Sizing Factor
  DesignDay,                              !- Cooling Design Air Flow Method
  ,                                       !- Cooling Design Air Flow Rate {m3/s}
  ,                                       !- Cooling Minimum Air Flow per Zone Floor Area {m3/s-m2}
  ,                                       !- Cooling Minimum Air Flow {m3/s}
  ,                                       !- Cooling Minimum Air Flow Fraction
  DesignDay,                              !- Heating Design Air Flow Method
  ,                                       !- Heating Design Air Flow Rate {m3/s}
  ,                                       !- Heating Maximum Air Flow per Zone Floor Area {m3/s-m2}
  ,                                       !- Heating Maximum Air Flow {m3/s}
  ,                                       !- Heating Maximum Air Flow Fraction
  No,                                     !- Account for Dedicated Outdoor Air System
  NeutralSupplyAir,                       !- Dedicated Outdoor Air System Control Strategy
  autosize,                               !- Dedicated Outdoor Air Low Setpoint Temperature for Design {C}
  autosize,                               !- Dedicated Outdoor Air High Setpoint Temperature for Design {C}
  Sensible Load Only No Latent Load,      !- Zone Load Sizing Method
  HumidityRatioDifference,                !- Zone Latent Cooling Design Supply Air Humidity Ratio Input Method
  ,                                       !- Zone Dehumidification Design Supply Air Humidity Ratio {kgWater/kgDryAir}
  0.005,                                  !- Zone Cooling Design Supply Air Humidity Ratio Difference {kgWater/kgDryAir}
  HumidityRatioDifference,                !- Zone Latent Heating Design Supply Air Humidity Ratio Input Method
  ,                                       !- Zone Humidification Design Supply Air Humidity Ratio {kgWater/kgDryAir}
  0.005,                                  !- Zone Humidification Design Supply Air Humidity Ratio Difference {kgWater/kgDryAir}
  ,                                       !- Zone Humidistat Dehumidification Set Point Schedule Name
  ,                                       !- Zone Humidistat Humidification Set Point Schedule Name
  ,                                       !- Design Zone Air Distribution Effectiveness in Cooling Mode
  ,                                       !- Design Zone Air Distribution Effectiveness in Heating Mode
  ,                                       !- Design Zone Secondary Recirculation Fraction {dimensionless}
  ,                                       !- Design Minimum Zone Ventilation Efficiency {dimensionless}
  Coincident;                             !- Sizing Option

OS:ZoneHVAC:EquipmentList,
  {f72f9a66-dd10-482a-a37a-8c2eabf9f4d9}, !- Handle
  Zone HVAC Equipment List 1,             !- Name
  {65d58ac7-622b-4395-8491-293cfb4d621f}, !- Thermal Zone
  ,                                       !- Load Distribution Scheme
  {8c1b5c7b-7cfb-46ee-b98d-31db5d98d836}, !- Zone Equipment 1
  1,                                      !- Zone Equipment Cooling Sequence 1
  1,                                      !- Zone Equipment Heating or No-Load Sequence 1
  {17abbd08-b60a-4857-85e4-6b1ffbf8c692}, !- Zone Equipment Sequential Cooling Fraction Schedule Name 1
  {ccda216e-205a-45fd-9581-7f6bb2beb067}; !- Zone Equipment Sequential Heating Fraction Schedule Name 1

OS:AdditionalProperties,
  {b40c70c6-ca78-41ab-921e-f85e16f00c08}, !- Handle
  {65d58ac7-622b-4395-8491-293cfb4d621f}, !- Object Name
  ObjectType,                             !- Feature Name 1
  String,                                 !- Feature Data Type 1
  conditioned space;                      !- Feature Value 1

OS:Space,
  {01765777-753c-4734-a018-c12837a77829}, !- Handle
  conditioned space 1,                    !- Name
  ,                                       !- Space Type Name
  ,                                       !- Default Construction Set Name
  ,                                       !- Default Schedule Set Name
  ,                                       !- Direction of Relative North {deg}
  ,                                       !- X Origin {m}
  ,                                       !- Y Origin {m}
  ,                                       !- Z Origin {m}
  ,                                       !- Building Story Name
  {65d58ac7-622b-4395-8491-293cfb4d621f}, !- Thermal Zone Name
  ,                                       !- Part of Total Floor Area
  ,                                       !- Design Specification Outdoor Air Object Name
  ,                                       !- Building Unit Name
  692.06373070848;                        !- Volume {m3}

OS:Schedule:Ruleset,
  {052cb40c-864a-4c23-b848-a8193cf08590}, !- Handle
  heating setpoint,                       !- Name
  {4719fc72-8b58-440a-906d-0397df390cbe}, !- Schedule Type Limits Name
  {e5607aa1-4229-4b93-b7f8-28f0a79cb87d}; !- Default Day Schedule Name

OS:Schedule:Day,
  {e5607aa1-4229-4b93-b7f8-28f0a79cb87d}, !- Handle
  heating setpoint default day,           !- Name
  {4719fc72-8b58-440a-906d-0397df390cbe}, !- Schedule Type Limits Name
  ,                                       !- Interpolate to Timestep
  24,                                     !- Hour 1
  0,                                      !- Minute 1
  0;                                      !- Value Until Time 1

OS:Schedule:Rule,
  {a71fd628-ca0d-46a5-9528-db8321ebc66e}, !- Handle
  heating setpoint allday rule,           !- Name
  {052cb40c-864a-4c23-b848-a8193cf08590}, !- Schedule Ruleset Name
  0,                                      !- Rule Order
  {16c90b3f-8008-4362-896e-687dcfc1a3ff}, !- Day Schedule Name
  Yes,                                    !- Apply Sunday
  Yes,                                    !- Apply Monday
  Yes,                                    !- Apply Tuesday
  Yes,                                    !- Apply Wednesday
  Yes,                                    !- Apply Thursday
  Yes,                                    !- Apply Friday
  Yes,                                    !- Apply Saturday
  DateRange,                              !- Date Specification Type
  1,                                      !- Start Month
  1,                                      !- Start Day
  12,                                     !- End Month
  31;                                     !- End Day

OS:Schedule:Day,
  {16c90b3f-8008-4362-896e-687dcfc1a3ff}, !- Handle
  heating setpoint day,                   !- Name
  {4719fc72-8b58-440a-906d-0397df390cbe}, !- Schedule Type Limits Name
  ,                                       !- Interpolate to Timestep
  24,                                     !- Hour 1
  0,                                      !- Minute 1
  20;                                     !- Value Until Time 1

OS:Schedule:Ruleset,
  {97a6e4c8-50f9-4402-8ab9-d98cc2e36e2c}, !- Handle
  cooling setpoint,                       !- Name
  {4719fc72-8b58-440a-906d-0397df390cbe}, !- Schedule Type Limits Name
  {49d9e4ef-1a13-4f94-82ee-fcb9d981dc10}; !- Default Day Schedule Name

OS:Schedule:Day,
  {49d9e4ef-1a13-4f94-82ee-fcb9d981dc10}, !- Handle
  cooling setpoint default day,           !- Name
  {4719fc72-8b58-440a-906d-0397df390cbe}, !- Schedule Type Limits Name
  ,                                       !- Interpolate to Timestep
  24,                                     !- Hour 1
  0,                                      !- Minute 1
  0;                                      !- Value Until Time 1

OS:Schedule:Rule,
  {8f503860-9904-4373-a1e5-7d11b173ed52}, !- Handle
  cooling setpoint allday rule,           !- Name
  {97a6e4c8-50f9-4402-8ab9-d98cc2e36e2c}, !- Schedule Ruleset Name
  0,                                      !- Rule Order
  {2301099c-3f1f-4b18-88b5-a1738185359a}, !- Day Schedule Name
  Yes,                                    !- Apply Sunday
  Yes,                                    !- Apply Monday
  Yes,                                    !- Apply Tuesday
  Yes,                                    !- Apply Wednesday
  Yes,                                    !- Apply Thursday
  Yes,                                    !- Apply Friday
  Yes,                                    !- Apply Saturday
  DateRange,                              !- Date Specification Type
  1,                                      !- Start Month
  1,                                      !- Start Day
  12,                                     !- End Month
  31;                                     !- End Day

OS:Schedule:Day,
  {2301099c-3f1f-4b18-88b5-a1738185359a}, !- Handle
  cooling setpoint day,                   !- Name
  {4719fc72-8b58-440a-906d-0397df390cbe}, !- Schedule Type Limits Name
  ,                                       !- Interpolate to Timestep
  24,                                     !- Hour 1
  0,                                      !- Minute 1
  25.5555555555556;                       !- Value Until Time 1

OS:ThermostatSetpoint:DualSetpoint,
  {1921a26e-fee0-4184-add1-830e2414785f}, !- Handle
  conditioned space temperature setpoint, !- Name
  {052cb40c-864a-4c23-b848-a8193cf08590}, !- Heating Setpoint Temperature Schedule Name
  {97a6e4c8-50f9-4402-8ab9-d98cc2e36e2c}, !- Cooling Setpoint Temperature Schedule Name
  0;                                      !- Temperature Difference Between Cutout And Setpoint {deltaC}

OS:ScheduleTypeLimits,
  {4719fc72-8b58-440a-906d-0397df390cbe}, !- Handle
  Temperature,                            !- Name
  ,                                       !- Lower Limit Value
  ,                                       !- Upper Limit Value
  Continuous,                             !- Numeric Type
  Temperature;                            !- Unit Type

OS:Surface,
  {b7bc5f52-b48f-4fb5-be66-43b396791ff3}, !- Handle
  Roof1,                                  !- Name
  RoofCeiling,                            !- Surface Type
  {2aee8e1e-d5c5-4b27-85a5-0328920f1d8f}, !- Construction Name
  {9c8a22a1-5037-453f-ba0e-915614fa78e2}, !- Space Name
  Outdoors,                               !- Outside Boundary Condition
  ,                                       !- Outside Boundary Condition Object
  SunExposed,                             !- Sun Exposure
  WindExposed,                            !- Wind Exposure
  ,                                       !- View Factor to Ground
  ,                                       !- Number of Vertices
  -26.9397848849634, 58.0608691618865, 2.4384, !- X,Y,Z Vertex 1 {m}
  -26.9397848849634, 46.7946431136661, 8.0715130241102, !- X,Y,Z Vertex 2 {m}
  -14.3437612381136, 46.7946431136661, 8.0715130241102, !- X,Y,Z Vertex 3 {m}
  -14.3437612381136, 58.0608691618865, 2.4384; !- X,Y,Z Vertex 4 {m}

OS:AdditionalProperties,
  {efabb115-94ba-4293-a373-a4da6efc3d89}, !- Handle
  {b7bc5f52-b48f-4fb5-be66-43b396791ff3}, !- Object Name
  Length,                                 !- Feature Name 1
  Double,                                 !- Feature Data Type 1
  41.325536899113608,                     !- Feature Value 1
  Width,                                  !- Feature Name 2
  Double,                                 !- Feature Data Type 2
  41.325536899113601,                     !- Feature Value 2
  Azimuth,                                !- Feature Name 3
  Integer,                                !- Feature Data Type 3
  0,                                      !- Feature Value 3
  Tilt,                                   !- Feature Name 4
  Double,                                 !- Feature Data Type 4
  0.5,                                    !- Feature Value 4
  SurfaceType,                            !- Feature Name 5
  String,                                 !- Feature Data Type 5
  Roof;                                   !- Feature Value 5

OS:ThermalZone,
  {f7bd2589-239f-40b9-98ad-f709826028d1}, !- Handle
  attic - vented,                         !- Name
  1,                                      !- Multiplier
  ,                                       !- Ceiling Height {m}
  356.390921899745,                       !- Volume {m3}
  ,                                       !- Floor Area {m2}
  ,                                       !- Zone Inside Convection Algorithm
  ,                                       !- Zone Outside Convection Algorithm
  ,                                       !- Zone Conditioning Equipment List Name
  {9e31b9ae-058c-483c-9641-2ef31a251d41}, !- Zone Air Inlet Port List
  {ba2a9957-6443-43ac-a470-1b66c835aa80}, !- Zone Air Exhaust Port List
  {8b058d7b-22ff-4985-aa2f-099a172d4344}, !- Zone Air Node Name
  {d532b91f-1a44-448e-8031-5b67c5b553e6}, !- Zone Return Air Port List
  ,                                       !- Primary Daylighting Control Name
  ,                                       !- Fraction of Zone Controlled by Primary Daylighting Control
  ,                                       !- Secondary Daylighting Control Name
  ,                                       !- Fraction of Zone Controlled by Secondary Daylighting Control
  ,                                       !- Illuminance Map Name
  ,                                       !- Group Rendering Name
  ,                                       !- Thermostat Name
  No;                                     !- Use Ideal Air Loads

OS:Node,
  {0eed8b5d-5cc3-480f-aa5b-82625a33ee70}, !- Handle
  Node 2,                                 !- Name
  {8b058d7b-22ff-4985-aa2f-099a172d4344}, !- Inlet Port
  ;                                       !- Outlet Port

OS:Connection,
  {8b058d7b-22ff-4985-aa2f-099a172d4344}, !- Handle
  {f7bd2589-239f-40b9-98ad-f709826028d1}, !- Source Object
  11,                                     !- Outlet Port
  {0eed8b5d-5cc3-480f-aa5b-82625a33ee70}, !- Target Object
  2;                                      !- Inlet Port

OS:PortList,
  {9e31b9ae-058c-483c-9641-2ef31a251d41}, !- Handle
  {f7bd2589-239f-40b9-98ad-f709826028d1}; !- HVAC Component

OS:PortList,
  {ba2a9957-6443-43ac-a470-1b66c835aa80}, !- Handle
  {f7bd2589-239f-40b9-98ad-f709826028d1}; !- HVAC Component

OS:PortList,
  {d532b91f-1a44-448e-8031-5b67c5b553e6}, !- Handle
  {f7bd2589-239f-40b9-98ad-f709826028d1}; !- HVAC Component

OS:Sizing:Zone,
  {14db1cea-e3f7-4f52-85ea-260eb5fae6ba}, !- Handle
  {f7bd2589-239f-40b9-98ad-f709826028d1}, !- Zone or ZoneList Name
  SupplyAirTemperature,                   !- Zone Cooling Design Supply Air Temperature Input Method
  14,                                     !- Zone Cooling Design Supply Air Temperature {C}
  11.11,                                  !- Zone Cooling Design Supply Air Temperature Difference {deltaC}
  SupplyAirTemperature,                   !- Zone Heating Design Supply Air Temperature Input Method
  40,                                     !- Zone Heating Design Supply Air Temperature {C}
  11.11,                                  !- Zone Heating Design Supply Air Temperature Difference {deltaC}
  0.0085,                                 !- Zone Cooling Design Supply Air Humidity Ratio {kg-H2O/kg-air}
  0.008,                                  !- Zone Heating Design Supply Air Humidity Ratio {kg-H2O/kg-air}
  ,                                       !- Zone Heating Sizing Factor
  ,                                       !- Zone Cooling Sizing Factor
  DesignDay,                              !- Cooling Design Air Flow Method
  ,                                       !- Cooling Design Air Flow Rate {m3/s}
  ,                                       !- Cooling Minimum Air Flow per Zone Floor Area {m3/s-m2}
  ,                                       !- Cooling Minimum Air Flow {m3/s}
  ,                                       !- Cooling Minimum Air Flow Fraction
  DesignDay,                              !- Heating Design Air Flow Method
  ,                                       !- Heating Design Air Flow Rate {m3/s}
  ,                                       !- Heating Maximum Air Flow per Zone Floor Area {m3/s-m2}
  ,                                       !- Heating Maximum Air Flow {m3/s}
  ,                                       !- Heating Maximum Air Flow Fraction
  No,                                     !- Account for Dedicated Outdoor Air System
  NeutralSupplyAir,                       !- Dedicated Outdoor Air System Control Strategy
  autosize,                               !- Dedicated Outdoor Air Low Setpoint Temperature for Design {C}
  autosize,                               !- Dedicated Outdoor Air High Setpoint Temperature for Design {C}
  Sensible Load Only No Latent Load,      !- Zone Load Sizing Method
  HumidityRatioDifference,                !- Zone Latent Cooling Design Supply Air Humidity Ratio Input Method
  ,                                       !- Zone Dehumidification Design Supply Air Humidity Ratio {kgWater/kgDryAir}
  0.005,                                  !- Zone Cooling Design Supply Air Humidity Ratio Difference {kgWater/kgDryAir}
  HumidityRatioDifference,                !- Zone Latent Heating Design Supply Air Humidity Ratio Input Method
  ,                                       !- Zone Humidification Design Supply Air Humidity Ratio {kgWater/kgDryAir}
  0.005,                                  !- Zone Humidification Design Supply Air Humidity Ratio Difference {kgWater/kgDryAir}
  ,                                       !- Zone Humidistat Dehumidification Set Point Schedule Name
  ,                                       !- Zone Humidistat Humidification Set Point Schedule Name
  ,                                       !- Design Zone Air Distribution Effectiveness in Cooling Mode
  ,                                       !- Design Zone Air Distribution Effectiveness in Heating Mode
  ,                                       !- Design Zone Secondary Recirculation Fraction {dimensionless}
  ,                                       !- Design Minimum Zone Ventilation Efficiency {dimensionless}
  Coincident;                             !- Sizing Option

OS:ZoneHVAC:EquipmentList,
  {782cff42-7a10-4e90-b269-7c12f41686bc}, !- Handle
  Zone HVAC Equipment List 2,             !- Name
  {f7bd2589-239f-40b9-98ad-f709826028d1}; !- Thermal Zone

OS:AdditionalProperties,
  {769fd000-34a9-471a-ab0f-13dec97844da}, !- Handle
  {f7bd2589-239f-40b9-98ad-f709826028d1}, !- Object Name
  ObjectType,                             !- Feature Name 1
  String,                                 !- Feature Data Type 1
  attic - vented;                         !- Feature Value 1

OS:Space,
  {9c8a22a1-5037-453f-ba0e-915614fa78e2}, !- Handle
  attic - vented 1,                       !- Name
  ,                                       !- Space Type Name
  ,                                       !- Default Construction Set Name
  ,                                       !- Default Schedule Set Name
  ,                                       !- Direction of Relative North {deg}
  ,                                       !- X Origin {m}
  ,                                       !- Y Origin {m}
  ,                                       !- Z Origin {m}
  ,                                       !- Building Story Name
  {f7bd2589-239f-40b9-98ad-f709826028d1}, !- Thermal Zone Name
  ,                                       !- Part of Total Floor Area
  ,                                       !- Design Specification Outdoor Air Object Name
  ,                                       !- Building Unit Name
  356.390921899745;                       !- Volume {m3}

OS:Material,
  {eb9f8751-5003-42d0-a5fa-d1154b3f3e2d}, !- Handle
  asphalt or fiberglass shingles,         !- Name
  Rough,                                  !- Roughness
  0.00635,                                !- Thickness {m}
  0.162714,                               !- Conductivity {W/m-K}
  1121.4,                                 !- Density {kg/m3}
  1465.45,                                !- Specific Heat {J/kg-K}
  0.9,                                    !- Thermal Absorptance
  0.85,                                   !- Solar Absorptance