
OS:Version,
  {7ad6fe81-f60f-4751-bdd5-e48bac6441d6}, !- Handle
  3.9.0;                                  !- Version Identifier

OS:SimulationControl,
  {7362d192-9514-44fa-8c4d-52fe4791921d}, !- Handle
  ,                                       !- Do Zone Sizing Calculation
  ,                                       !- Do System Sizing Calculation
  ,                                       !- Do Plant Sizing Calculation
  No;                                     !- Run Simulation for Sizing Periods

OS:Timestep,
  {091a0fea-6e3d-4143-90e9-1247e37130af}, !- Handle
  1;                                      !- Number of Timesteps per Hour

OS:ShadowCalculation,
  {a1cd4314-a6a0-48ea-811d-205b0d714732}, !- Handle
  PolygonClipping,                        !- Shading Calculation Method
  ,                                       !- Shading Calculation Update Frequency Method
  20,                                     !- Shading Calculation Update Frequency
  200,                                    !- Maximum Figures in Shadow Overlap Calculations
  ,                                       !- Polygon Clipping Algorithm
  512,                                    !- Pixel Counting Resolution
  ,                                       !- Sky Diffuse Modeling Algorithm
  No,                                     !- Output External Shading Calculation Results
  No,                                     !- Disable Self-Shading Within Shading Zone Groups
  No;                                     !- Disable Self-Shading From Shading Zone Groups to Other Zones

OS:SurfaceConvectionAlgorithm:Outside,
  {f3c385e7-e1b4-4ff7-acaa-c8f2d7b4c433}, !- Handle
  DOE-2;                                  !- Algorithm

OS:SurfaceConvectionAlgorithm:Inside,
  {eb26c9d9-7bd0-485d-ab11-c7791a502642}, !- Handle
  TARP;                                   !- Algorithm

OS:ZoneCapacitanceMultiplier:ResearchSpecial,
  {454b7da9-8c7d-4382-8ea7-01c48e0f63cd}, !- Handle
  7,                                      !- Temperature Capacity Multiplier
  15,                                     !- Humidity Capacity Multiplier
  ;                                       !- Carbon Dioxide Capacity Multiplier

OS:ConvergenceLimits,
  {6ac48849-6269-4114-9ba2-df6c83d63e2c}, !- Handle
  0;                                      !- Minimum System Timestep {minutes}

OS:RunPeriod,
  {badbeafa-ccd1-4b4a-8af9-238f5a9b8627}, !- Handle
  Run Period 1,                           !- Name
  1,                                      !- Begin Month
  1,                                      !- Begin Day of Month
  12,                                     !- End Month
  31,                                     !- End Day of Month
  ,                                       !- Use Weather File Holidays and Special Days
  ,                                       !- Use Weather File Daylight Saving Period
  ,                                       !- Apply Weekend Holiday Rule
  ,                                       !- Use Weather File Rain Indicators
  ,                                       !- Use Weather File Snow Indicators
  ;                                       !- Number of Times Runperiod to be Repeated

OS:PerformancePrecisionTradeoffs,
  {bfef1a3c-09f6-4441-b0ce-9372ccce8e0d}, !- Handle
  ,                                       !- Use Coil Direct Solutions
  CarrollMRT;                             !- Zone Radiant Exchange Algorithm

OS:WeatherFile,
  {5fe27457-8343-43ad-80f6-f3ef3dc2c0b1}, !- Handle
  Buffalo Niagara Intl Ap,                !- City
  NY,                                     !- State Province Region
  USA,                                    !- Country
  TMY3,                                   !- Data Source
  725280,                                 !- WMO Number
  42.93,                                  !- Latitude {deg}
  -78.73,                                 !- Longitude {deg}
  -5,                                     !- Time Zone {hr}
  215,                                    !- Elevation {m}
  /Users/nmoore/github/urbanopt-example-geojson-project/example_project/weather/USA_NY_Buffalo-Greater.Buffalo.Intl.AP.725280_TMY3.epw, !- Url
  6B50E0FF,                               !- Checksum
  ,                                       !- Start Date Actual Year
  Sunday;                                 !- Start Day of Week

OS:YearDescription,
  {a4cf7c60-2e0c-4898-ba04-012225b38f5e}, !- Handle
  2007,                                   !- Calendar Year
  ,                                       !- Day of Week for Start Day
  ;                                       !- Is Leap Year

OS:Site,
  {1f4c6898-5c0f-4f3c-b2a6-5dca090cea07}, !- Handle
  Buffalo Niagara Intl Ap_NY,             !- Name
  42.93,                                  !- Latitude {deg}
  -78.73,                                 !- Longitude {deg}
  -5,                                     !- Time Zone {hr}
  215,                                    !- Elevation {m}
  Suburbs,                                !- Terrain
  Yes;                                    !- Keep Site Location Information

OS:RunPeriodControl:DaylightSavingTime,
  {f9abc1d8-d296-47e0-aee7-468df97b163f}, !- Handle
  Mar 12,                                 !- Start Date
  Nov 5;                                  !- End Date

OS:Site:GroundTemperature:Shallow,
  {370586c2-143b-4514-964c-c9a1be79f8e4}, !- Handle
  4.30207395723828,                       !- January Surface Ground Temperature {C}
  2.29327249652502,                       !- February Surface Ground Temperature {C}
  2.13240047156047,                       !- March Surface Ground Temperature {C}
  3.08567940719286,                       !- April Surface Ground Temperature {C}
  6.91256312497526,                       !- May Surface Ground Temperature {C}
  10.7216195949507,                       !- June Surface Ground Temperature {C}
  14.0238679822574,                       !- July Surface Ground Temperature {C}
  16.1157611184724,                       !- August Surface Ground Temperature {C}
  16.2934789303462,                       !- September Surface Ground Temperature {C}
  14.5920754632847,                       !- October Surface Ground Temperature {C}
  11.374036348653,                        !- November Surface Ground Temperature {C}
  7.68182621661674;                       !- December Surface Ground Temperature {C}

OS:ThermalZone,
  {e6e06996-3bf6-4602-bda8-db85444fe78d}, !- Handle
  conditioned space,                      !- Name
  1,                                      !- Multiplier
  ,                                       !- Ceiling Height {m}
  692.06373070848,                        !- Volume {m3}
  ,                                       !- Floor Area {m2}
  ,                                       !- Zone Inside Convection Algorithm
  ,                                       !- Zone Outside Convection Algorithm
  ,                                       !- Zone Conditioning Equipment List Name
  {54fab91c-7439-4675-a30d-9c05b5545af3}, !- Zone Air Inlet Port List
  {44bad39a-1c7c-4440-bb78-3ae49b6e4deb}, !- Zone Air Exhaust Port List
  {da5c620d-69e6-435a-b1bf-25d1f7aa036d}, !- Zone Air Node Name
  {0390d982-8c60-44a0-a3e5-85c8e53ea575}, !- Zone Return Air Port List
  ,                                       !- Primary Daylighting Control Name
  ,                                       !- Fraction of Zone Controlled by Primary Daylighting Control
  ,                                       !- Secondary Daylighting Control Name
  ,                                       !- Fraction of Zone Controlled by Secondary Daylighting Control
  ,                                       !- Illuminance Map Name
  ,                                       !- Group Rendering Name
  {ac615adb-3752-4b45-b704-824155c53357}, !- Thermostat Name
  No;                                     !- Use Ideal Air Loads

OS:Node,
  {60722b6a-4e9a-4908-9e46-1b7957fa8ef9}, !- Handle
  Node 1,                                 !- Name
  {da5c620d-69e6-435a-b1bf-25d1f7aa036d}, !- Inlet Port
  ;                                       !- Outlet Port

OS:Connection,
  {da5c620d-69e6-435a-b1bf-25d1f7aa036d}, !- Handle
  {e6e06996-3bf6-4602-bda8-db85444fe78d}, !- Source Object
  11,                                     !- Outlet Port
  {60722b6a-4e9a-4908-9e46-1b7957fa8ef9}, !- Target Object
  2;                                      !- Inlet Port

OS:PortList,
  {54fab91c-7439-4675-a30d-9c05b5545af3}, !- Handle
  {e6e06996-3bf6-4602-bda8-db85444fe78d}, !- HVAC Component
  {3b9fa15e-d579-46fb-9545-3abb20ac0dfc}; !- Port 1

OS:PortList,
  {44bad39a-1c7c-4440-bb78-3ae49b6e4deb}, !- Handle
  {e6e06996-3bf6-4602-bda8-db85444fe78d}; !- HVAC Component

OS:PortList,
  {0390d982-8c60-44a0-a3e5-85c8e53ea575}, !- Handle
  {e6e06996-3bf6-4602-bda8-db85444fe78d}, !- HVAC Component
  {31e56250-b80d-4065-aac5-fb73a9616a7c}; !- Port 1

OS:Sizing:Zone,
  {9096f739-215b-4522-b729-c4912faa1eb8}, !- Handle
  {e6e06996-3bf6-4602-bda8-db85444fe78d}, !- Zone or ZoneList Name
  SupplyAirTemperature,                   !- Zone Cooling Design Supply Air Temperature Input Method
  14,                                     !- Zone Cooling Design Supply Air Temperature {C}
  11.11,                                  !- Zone Cooling Design Supply Air Temperature Difference {deltaC}
  SupplyAirTemperature,                   !- Zone Heating Design Supply Air Temperature Input Method
  40,                                     !- Zone Heating Design Supply Air Temperature {C}
  11.11,                                  !- Zone Heating Design Supply Air Temperature Difference {deltaC}
  0.0085,                                 !- Zone Cooling Design Supply Air Humidity Ratio {kg-H2O/kg-air}
  0.008,                                  !- Zone Heating Design Supply Air Humidity Ratio {kg-H2O/kg-air}
  ,                                       !- Zone Heating Sizing Factor
  ,                                       !- Zone Cooling Sizing Factor
  DesignDay,                              !- Cooling Design Air Flow Method
  ,                                       !- Cooling Design Air Flow Rate {m3/s}
  ,                                       !- Cooling Minimum Air Flow per Zone Floor Area {m3/s-m2}
  ,                                       !- Cooling Minimum Air Flow {m3/s}
  ,                                       !- Cooling Minimum Air Flow Fraction
  DesignDay,                              !- Heating Design Air Flow Method
  ,                                       !- Heating Design Air Flow Rate {m3/s}
  ,                                       !- Heating Maximum Air Flow per Zone Floor Area {m3/s-m2}
  ,                                       !- Heating Maximum Air Flow {m3/s}
  ,                                       !- Heating Maximum Air Flow Fraction
  No,                                     !- Account for Dedicated Outdoor Air System
  NeutralSupplyAir,                       !- Dedicated Outdoor Air System Control Strategy
  autosize,                               !- Dedicated Outdoor Air Low Setpoint Temperature for Design {C}
  autosize,                               !- Dedicated Outdoor Air High Setpoint Temperature for Design {C}
  Sensible Load Only No Latent Load,      !- Zone Load Sizing Method
  HumidityRatioDifference,                !- Zone Latent Cooling Design Supply Air Humidity Ratio Input Method
  ,                                       !- Zone Dehumidification Design Supply Air Humidity Ratio {kgWater/kgDryAir}
  0.005,                                  !- Zone Cooling Design Supply Air Humidity Ratio Difference {kgWater/kgDryAir}
  HumidityRatioDifference,                !- Zone Latent Heating Design Supply Air Humidity Ratio Input Method
  ,                                       !- Zone Humidification Design Supply Air Humidity Ratio {kgWater/kgDryAir}
  0.005,                                  !- Zone Humidification Design Supply Air Humidity Ratio Difference {kgWater/kgDryAir}
  ,                                       !- Zone Humidistat Dehumidification Set Point Schedule Name
  ,                                       !- Zone Humidistat Humidification Set Point Schedule Name
  ,                                       !- Design Zone Air Distribution Effectiveness in Cooling Mode
  ,                                       !- Design Zone Air Distribution Effectiveness in Heating Mode
  ,                                       !- Design Zone Secondary Recirculation Fraction {dimensionless}
  ,                                       !- Design Minimum Zone Ventilation Efficiency {dimensionless}
  Coincident;                             !- Sizing Option

OS:ZoneHVAC:EquipmentList,
  {eb6d6da4-ccd4-440c-ab08-93881ec2ce2a}, !- Handle
  Zone HVAC Equipment List 1,             !- Name
  {e6e06996-3bf6-4602-bda8-db85444fe78d}, !- Thermal Zone
  ,                                       !- Load Distribution Scheme
  {12cbd3d6-c04a-4d24-b72e-56f027f494fc}, !- Zone Equipment 1
  1,                                      !- Zone Equipment Cooling Sequence 1
  1,                                      !- Zone Equipment Heating or No-Load Sequence 1
  {39f78193-5abd-47e7-a712-ae26047c9d50}, !- Zone Equipment Sequential Cooling Fraction Schedule Name 1
  {b301574f-3ed0-4f17-906d-5771fe9b32e3}; !- Zone Equipment Sequential Heating Fraction Schedule Name 1

OS:AdditionalProperties,
  {3c5fbbb2-5fdb-4125-ab50-4b0e34351247}, !- Handle
  {e6e06996-3bf6-4602-bda8-db85444fe78d}, !- Object Name
  ObjectType,                             !- Feature Name 1
  String,                                 !- Feature Data Type 1
  conditioned space;                      !- Feature Value 1

OS:Space,
  {dd0723d4-e0a7-445d-9468-29df4f7eea8b}, !- Handle
  conditioned space 1,                    !- Name
  ,                                       !- Space Type Name
  ,                                       !- Default Construction Set Name
  ,                                       !- Default Schedule Set Name
  ,                                       !- Direction of Relative North {deg}
  ,                                       !- X Origin {m}
  ,                                       !- Y Origin {m}
  ,                                       !- Z Origin {m}
  ,                                       !- Building Story Name
  {e6e06996-3bf6-4602-bda8-db85444fe78d}, !- Thermal Zone Name
  ,                                       !- Part of Total Floor Area
  ,                                       !- Design Specification Outdoor Air Object Name
  ,                                       !- Building Unit Name
  692.06373070848;                        !- Volume {m3}

OS:Schedule:Ruleset,
  {6412abae-c4ff-498b-b643-d17d48692140}, !- Handle
  heating setpoint,                       !- Name
  {5496c1a5-5b2d-4d57-9492-2e492488b8c2}, !- Schedule Type Limits Name
  {09071fbb-b3d4-41c4-9547-c55e56e2a907}; !- Default Day Schedule Name

OS:Schedule:Day,
  {09071fbb-b3d4-41c4-9547-c55e56e2a907}, !- Handle
  heating setpoint default day,           !- Name
  {5496c1a5-5b2d-4d57-9492-2e492488b8c2}, !- Schedule Type Limits Name
  ,                                       !- Interpolate to Timestep
  24,                                     !- Hour 1
  0,                                      !- Minute 1
  0;                                      !- Value Until Time 1

OS:Schedule:Rule,
  {f4cc5d38-2e36-4cda-b17d-46ef6c961f99}, !- Handle
  heating setpoint allday rule,           !- Name
  {6412abae-c4ff-498b-b643-d17d48692140}, !- Schedule Ruleset Name
  0,                                      !- Rule Order
  {996a8e47-fb31-469d-aa45-726352ac8177}, !- Day Schedule Name
  Yes,                                    !- Apply Sunday
  Yes,                                    !- Apply Monday
  Yes,                                    !- Apply Tuesday
  Yes,                                    !- Apply Wednesday
  Yes,                                    !- Apply Thursday
  Yes,                                    !- Apply Friday
  Yes,                                    !- Apply Saturday
  DateRange,                              !- Date Specification Type
  1,                                      !- Start Month
  1,                                      !- Start Day
  12,                                     !- End Month
  31;                                     !- End Day

OS:Schedule:Day,
  {996a8e47-fb31-469d-aa45-726352ac8177}, !- Handle
  heating setpoint day,                   !- Name
  {5496c1a5-5b2d-4d57-9492-2e492488b8c2}, !- Schedule Type Limits Name
  ,                                       !- Interpolate to Timestep
  24,                                     !- Hour 1
  0,                                      !- Minute 1
  20;                                     !- Value Until Time 1

OS:Schedule:Ruleset,
  {16e230d7-5378-4226-8ee4-aa69ba9c2d52}, !- Handle
  cooling setpoint,                       !- Name
  {5496c1a5-5b2d-4d57-9492-2e492488b8c2}, !- Schedule Type Limits Name
  {502e07ac-2c1e-485d-9597-41e5bcde24c2}; !- Default Day Schedule Name

OS:Schedule:Day,
  {502e07ac-2c1e-485d-9597-41e5bcde24c2}, !- Handle
  cooling setpoint default day,           !- Name
  {5496c1a5-5b2d-4d57-9492-2e492488b8c2}, !- Schedule Type Limits Name
  ,                                       !- Interpolate to Timestep
  24,                                     !- Hour 1
  0,                                      !- Minute 1
  0;                                      !- Value Until Time 1

OS:Schedule:Rule,
  {3161c687-6c83-4653-9e04-476f54afbe6d}, !- Handle
  cooling setpoint allday rule,           !- Name
  {16e230d7-5378-4226-8ee4-aa69ba9c2d52}, !- Schedule Ruleset Name
  0,                                      !- Rule Order
  {81308848-3403-474a-b7f2-ed2353fa20d6}, !- Day Schedule Name
  Yes,                                    !- Apply Sunday
  Yes,                                    !- Apply Monday
  Yes,                                    !- Apply Tuesday
  Yes,                                    !- Apply Wednesday
  Yes,                                    !- Apply Thursday
  Yes,                                    !- Apply Friday
  Yes,                                    !- Apply Saturday
  DateRange,                              !- Date Specification Type
  1,                                      !- Start Month
  1,                                      !- Start Day
  12,                                     !- End Month
  31;                                     !- End Day

OS:Schedule:Day,
  {81308848-3403-474a-b7f2-ed2353fa20d6}, !- Handle
  cooling setpoint day,                   !- Name
  {5496c1a5-5b2d-4d57-9492-2e492488b8c2}, !- Schedule Type Limits Name
  ,                                       !- Interpolate to Timestep
  24,                                     !- Hour 1
  0,                                      !- Minute 1
  25.5555555555556;                       !- Value Until Time 1

OS:ThermostatSetpoint:DualSetpoint,
  {ac615adb-3752-4b45-b704-824155c53357}, !- Handle
  conditioned space temperature setpoint, !- Name
  {6412abae-c4ff-498b-b643-d17d48692140}, !- Heating Setpoint Temperature Schedule Name
  {16e230d7-5378-4226-8ee4-aa69ba9c2d52}, !- Cooling Setpoint Temperature Schedule Name
  0;                                      !- Temperature Difference Between Cutout And Setpoint {deltaC}

OS:ScheduleTypeLimits,
  {5496c1a5-5b2d-4d57-9492-2e492488b8c2}, !- Handle
  Temperature,                            !- Name
  ,                                       !- Lower Limit Value
  ,                                       !- Upper Limit Value
  Continuous,                             !- Numeric Type
  Temperature;                            !- Unit Type

OS:Surface,
  {8459f2de-b86f-4700-aeb5-f78412642ec6}, !- Handle
  Roof1,                                  !- Name
  RoofCeiling,                            !- Surface Type
  {6279ec8d-06a3-4b26-970a-dad5524dfa1c}, !- Construction Name
  {9f4b87af-5e1d-4a09-a8e1-c65c9395404d}, !- Space Name
  Outdoors,                               !- Outside Boundary Condition
  ,                                       !- Outside Boundary Condition Object
  SunExposed,                             !- Sun Exposure
  WindExposed,                            !- Wind Exposure
  ,                                       !- View Factor to Ground
  ,                                       !- Number of Vertices
  -26.9347048849634, 58.0557891618865, 2.4384, !- X,Y,Z Vertex 1 {m}
  -26.9347048849634, 46.7895631136661, 8.0715130241102, !- X,Y,Z Vertex 2 {m}
  -14.3386812381136, 46.7895631136661, 8.0715130241102, !- X,Y,Z Vertex 3 {m}
  -14.3386812381136, 58.0557891618865, 2.4384; !- X,Y,Z Vertex 4 {m}

OS:AdditionalProperties,
  {fd8ba227-8a35-447c-aad7-6085476bf221}, !- Handle
  {8459f2de-b86f-4700-aeb5-f78412642ec6}, !- Object Name
  Length,                                 !- Feature Name 1
  Double,                                 !- Feature Data Type 1
  41.325536899113608,                     !- Feature Value 1
  Width,                                  !- Feature Name 2
  Double,                                 !- Feature Data Type 2
  41.325536899113601,                     !- Feature Value 2
  Azimuth,                                !- Feature Name 3
  Integer,                                !- Feature Data Type 3
  0,                                      !- Feature Value 3
  Tilt,                                   !- Feature Name 4
  Double,                                 !- Feature Data Type 4
  0.5,                                    !- Feature Value 4
  SurfaceType,                            !- Feature Name 5
  String,                                 !- Feature Data Type 5
  Roof;                                   !- Feature Value 5

OS:ThermalZone,
  {d52de83a-c59c-44f6-9664-8319167c06dc}, !- Handle
  attic - vented,                         !- Name
  1,                                      !- Multiplier
  ,                                       !- Ceiling Height {m}
  356.389957095237,                       !- Volume {m3}
  ,                                       !- Floor Area {m2}
  ,                                       !- Zone Inside Convection Algorithm
  ,                                       !- Zone Outside Convection Algorithm
  ,                                       !- Zone Conditioning Equipment List Name
  {5f6e83a4-549f-4004-a5b9-f33c8f28630c}, !- Zone Air Inlet Port List
  {5c17d162-0458-40a6-8897-5b91be3dabf4}, !- Zone Air Exhaust Port List
  {88eb2e58-bead-4e90-9578-f70033dcc3fe}, !- Zone Air Node Name
  {ebece88f-4733-438c-9895-c2544af71139}, !- Zone Return Air Port List
  ,                                       !- Primary Daylighting Control Name
  ,                                       !- Fraction of Zone Controlled by Primary Daylighting Control
  ,                                       !- Secondary Daylighting Control Name
  ,                                       !- Fraction of Zone Controlled by Secondary Daylighting Control
  ,                                       !- Illuminance Map Name
  ,                                       !- Group Rendering Name
  ,                                       !- Thermostat Name
  No;                                     !- Use Ideal Air Loads

OS:Node,
  {06b8ea38-8511-4fd6-80df-009714c2db33}, !- Handle
  Node 2,                                 !- Name
  {88eb2e58-bead-4e90-9578-f70033dcc3fe}, !- Inlet Port
  ;                                       !- Outlet Port

OS:Connection,
  {88eb2e58-bead-4e90-9578-f70033dcc3fe}, !- Handle
  {d52de83a-c59c-44f6-9664-8319167c06dc}, !- Source Object
  11,                                     !- Outlet Port
  {06b8ea38-8511-4fd6-80df-009714c2db33}, !- Target Object
  2;                                      !- Inlet Port

OS:PortList,
  {5f6e83a4-549f-4004-a5b9-f33c8f28630c}, !- Handle
  {d52de83a-c59c-44f6-9664-8319167c06dc}; !- HVAC Component

OS:PortList,
  {5c17d162-0458-40a6-8897-5b91be3dabf4}, !- Handle
  {d52de83a-c59c-44f6-9664-8319167c06dc}; !- HVAC Component

OS:PortList,
  {ebece88f-4733-438c-9895-c2544af71139}, !- Handle
  {d52de83a-c59c-44f6-9664-8319167c06dc}; !- HVAC Component

OS:Sizing:Zone,
  {2127bce6-435f-4d1c-b297-1f56e54a1ef1}, !- Handle
  {d52de83a-c59c-44f6-9664-8319167c06dc}, !- Zone or ZoneList Name
  SupplyAirTemperature,                   !- Zone Cooling Design Supply Air Temperature Input Method
  14,                                     !- Zone Cooling Design Supply Air Temperature {C}
  11.11,                                  !- Zone Cooling Design Supply Air Temperature Difference {deltaC}
  SupplyAirTemperature,                   !- Zone Heating Design Supply Air Temperature Input Method
  40,                                     !- Zone Heating Design Supply Air Temperature {C}
  11.11,                                  !- Zone Heating Design Supply Air Temperature Difference {deltaC}
  0.0085,                                 !- Zone Cooling Design Supply Air Humidity Ratio {kg-H2O/kg-air}
  0.008,                                  !- Zone Heating Design Supply Air Humidity Ratio {kg-H2O/kg-air}
  ,                                       !- Zone Heating Sizing Factor
  ,                                       !- Zone Cooling Sizing Factor
  DesignDay,                              !- Cooling Design Air Flow Method
  ,                                       !- Cooling Design Air Flow Rate {m3/s}
  ,                                       !- Cooling Minimum Air Flow per Zone Floor Area {m3/s-m2}
  ,                                       !- Cooling Minimum Air Flow {m3/s}
  ,                                       !- Cooling Minimum Air Flow Fraction
  DesignDay,                              !- Heating Design Air Flow Method
  ,                                       !- Heating Design Air Flow Rate {m3/s}
  ,                                       !- Heating Maximum Air Flow per Zone Floor Area {m3/s-m2}
  ,                                       !- Heating Maximum Air Flow {m3/s}
  ,                                       !- Heating Maximum Air Flow Fraction
  No,                                     !- Account for Dedicated Outdoor Air System
  NeutralSupplyAir,                       !- Dedicated Outdoor Air System Control Strategy
  autosize,                               !- Dedicated Outdoor Air Low Setpoint Temperature for Design {C}
  autosize,                               !- Dedicated Outdoor Air High Setpoint Temperature for Design {C}
  Sensible Load Only No Latent Load,      !- Zone Load Sizing Method
  HumidityRatioDifference,                !- Zone Latent Cooling Design Supply Air Humidity Ratio Input Method
  ,                                       !- Zone Dehumidification Design Supply Air Humidity Ratio {kgWater/kgDryAir}
  0.005,                                  !- Zone Cooling Design Supply Air Humidity Ratio Difference {kgWater/kgDryAir}
  HumidityRatioDifference,                !- Zone Latent Heating Design Supply Air Humidity Ratio Input Method
  ,                                       !- Zone Humidification Design Supply Air Humidity Ratio {kgWater/kgDryAir}
  0.005,                                  !- Zone Humidification Design Supply Air Humidity Ratio Difference {kgWater/kgDryAir}
  ,                                       !- Zone Humidistat Dehumidification Set Point Schedule Name
  ,                                       !- Zone Humidistat Humidification Set Point Schedule Name
  ,                                       !- Design Zone Air Distribution Effectiveness in Cooling Mode
  ,                                       !- Design Zone Air Distribution Effectiveness in Heating Mode
  ,                                       !- Design Zone Secondary Recirculation Fraction {dimensionless}
  ,                                       !- Design Minimum Zone Ventilation Efficiency {dimensionless}
  Coincident;                             !- Sizing Option

OS:ZoneHVAC:EquipmentList,
  {e09c4f2c-9528-4128-b578-4a378981c86a}, !- Handle
  Zone HVAC Equipment List 2,             !- Name
  {d52de83a-c59c-44f6-9664-8319167c06dc}; !- Thermal Zone

OS:AdditionalProperties,
  {facaa2d3-7d24-404c-a544-66b678735d9c}, !- Handle
  {d52de83a-c59c-44f6-9664-8319167c06dc}, !- Object Name
  ObjectType,                             !- Feature Name 1
  String,                                 !- Feature Data Type 1
  attic - vented;                         !- Feature Value 1

OS:Space,
  {9f4b87af-5e1d-4a09-a8e1-c65c9395404d}, !- Handle
  attic - vented 1,                       !- Name
  ,                                       !- Space Type Name
  ,                                       !- Default Construction Set Name
  ,                                       !- Default Schedule Set Name
  ,                                       !- Direction of Relative North {deg}
  ,                                       !- X Origin {m}
  ,                                       !- Y Origin {m}
  ,                                       !- Z Origin {m}
  ,                                       !- Building Story Name
  {d52de83a-c59c-44f6-9664-8319167c06dc}, !- Thermal Zone Name
  ,                                       !- Part of Total Floor Area
  ,                                       !- Design Specification Outdoor Air Object Name
  ,                                       !- Building Unit Name
  356.389957095237;                       !- Volume {m3}

OS:Material,
  {794c6391-6cd7-44a4-b9a9-f80be63d788f}, !- Handle
  asphalt or fiberglass shingles,         !- Name
  Rough,                                  !- Roughness
  0.00635,                                !- Thickness {m}
  0.162714,                               !- Conductivity {W/m-K}
  1121.4,                                 !- Density {kg/m3}
  1465.45,                                !- Specific Heat {J/kg-K}
  0.9,                                    !- Thermal Absorptance
  0.85,                                   !- Solar Absorptance