
OS:Version,
  {465bd6fd-cdb0-47f1-81be-952c1f1edc4b}, !- Handle
  3.10.0;                                 !- Version Identifier

OS:SimulationControl,
  {9a6b1d7d-7d26-4db1-ba57-a67dc86b3d44}, !- Handle
  ,                                       !- Do Zone Sizing Calculation
  ,                                       !- Do System Sizing Calculation
  ,                                       !- Do Plant Sizing Calculation
  No;                                     !- Run Simulation for Sizing Periods

OS:Timestep,
  {d666d63e-5463-44a4-ba26-2788342f6948}, !- Handle
  1;                                      !- Number of Timesteps per Hour

OS:ShadowCalculation,
  {85a93a61-92c3-420e-8103-38cd10ae0a34}, !- Handle
  PolygonClipping,                        !- Shading Calculation Method
  ,                                       !- Shading Calculation Update Frequency Method
  20,                                     !- Shading Calculation Update Frequency
  200,                                    !- Maximum Figures in Shadow Overlap Calculations
  ,                                       !- Polygon Clipping Algorithm
  512,                                    !- Pixel Counting Resolution
  ,                                       !- Sky Diffuse Modeling Algorithm
  No,                                     !- Output External Shading Calculation Results
  No,                                     !- Disable Self-Shading Within Shading Zone Groups
  No;                                     !- Disable Self-Shading From Shading Zone Groups to Other Zones

OS:SurfaceConvectionAlgorithm:Outside,
  {60d93a07-1dde-4489-a822-720b5e2d273a}, !- Handle
  DOE-2;                                  !- Algorithm

OS:SurfaceConvectionAlgorithm:Inside,
  {d076ef09-429b-4d6d-87fd-40ffade11a66}, !- Handle
  TARP;                                   !- Algorithm

OS:ZoneCapacitanceMultiplier:ResearchSpecial,
  {5aae002b-72f1-450a-b3a1-70e34b347212}, !- Handle
  7,                                      !- Temperature Capacity Multiplier
  15,                                     !- Humidity Capacity Multiplier
  ;                                       !- Carbon Dioxide Capacity Multiplier

OS:ConvergenceLimits,
  {6b406c2e-5b9d-4188-ba3f-476108a8a03e}, !- Handle
  0;                                      !- Minimum System Timestep {minutes}

OS:RunPeriod,
  {813a8295-6281-457b-885f-3481a61d24fd}, !- Handle
  Run Period 1,                           !- Name
  1,                                      !- Begin Month
  1,                                      !- Begin Day of Month
  12,                                     !- End Month
  31,                                     !- End Day of Month
  ,                                       !- Use Weather File Holidays and Special Days
  ,                                       !- Use Weather File Daylight Saving Period
  ,                                       !- Apply Weekend Holiday Rule
  ,                                       !- Use Weather File Rain Indicators
  ,                                       !- Use Weather File Snow Indicators
  ;                                       !- Number of Times Runperiod to be Repeated

OS:PerformancePrecisionTradeoffs,
  {41be6618-9dc5-4d61-bc68-c8a9bea566a3}, !- Handle
  ,                                       !- Use Coil Direct Solutions
  CarrollMRT;                             !- Zone Radiant Exchange Algorithm

OS:WeatherFile,
  {25de0fae-4151-415e-91e2-37b407183ebc}, !- Handle
  Buffalo Niagara Intl Ap,                !- City
  NY,                                     !- State Province Region
  USA,                                    !- Country
  TMY3,                                   !- Data Source
  725280,                                 !- WMO Number
  42.93,                                  !- Latitude {deg}
  -78.73,                                 !- Longitude {deg}
  -5,                                     !- Time Zone {hr}
  215,                                    !- Elevation {m}
  /Users/nmoore/github/urbanopt-example-geojson-project/example_project/weather/USA_NY_Buffalo-Greater.Buffalo.Intl.AP.725280_TMY3.epw, !- Url
  6B50E0FF,                               !- Checksum
  ,                                       !- Start Date Actual Year
  Sunday;                                 !- Start Day of Week

OS:YearDescription,
  {8fac211f-60df-4685-8ec0-a4e76e0c4c05}, !- Handle
  2007,                                   !- Calendar Year
  ,                                       !- Day of Week for Start Day
  ;                                       !- Is Leap Year

OS:Site,
  {4852da87-4d32-47d5-83fa-8c0fc1183c14}, !- Handle
  Buffalo Niagara Intl Ap_NY,             !- Name
  42.93,                                  !- Latitude {deg}
  -78.73,                                 !- Longitude {deg}
  -5,                                     !- Time Zone {hr}
  215,                                    !- Elevation {m}
  Suburbs,                                !- Terrain
  Yes;                                    !- Keep Site Location Information

OS:RunPeriodControl:DaylightSavingTime,
  {28a6d607-d106-4c53-b280-d8f9e5ee4395}, !- Handle
  Mar 12,                                 !- Start Date
  Nov 5;                                  !- End Date

OS:Site:GroundTemperature:Shallow,
  {c3a62937-2fd9-4996-8d1a-489f438abcc7}, !- Handle
  4.30207395723828,                       !- January Surface Ground Temperature {C}
  2.29327249652502,                       !- February Surface Ground Temperature {C}
  2.13240047156047,                       !- March Surface Ground Temperature {C}
  3.08567940719286,                       !- April Surface Ground Temperature {C}
  6.91256312497526,                       !- May Surface Ground Temperature {C}
  10.7216195949507,                       !- June Surface Ground Temperature {C}
  14.0238679822574,                       !- July Surface Ground Temperature {C}
  16.1157611184724,                       !- August Surface Ground Temperature {C}
  16.2934789303462,                       !- September Surface Ground Temperature {C}
  14.5920754632847,                       !- October Surface Ground Temperature {C}
  11.374036348653,                        !- November Surface Ground Temperature {C}
  7.68182621661674;                       !- December Surface Ground Temperature {C}

OS:ThermalZone,
  {26cdc66b-61bd-4558-bb65-b09a49e77590}, !- Handle
  conditioned space,                      !- Name
  1,                                      !- Multiplier
  ,                                       !- Ceiling Height {m}
  692.06373070848,                        !- Volume {m3}
  ,                                       !- Floor Area {m2}
  ,                                       !- Zone Inside Convection Algorithm
  ,                                       !- Zone Outside Convection Algorithm
  ,                                       !- Zone Conditioning Equipment List Name
  {4b5d551c-fb72-487d-9107-316d7b1cc1ff}, !- Zone Air Inlet Port List
  {345dd839-8140-45fa-8af2-fd4511290515}, !- Zone Air Exhaust Port List
  {ff12cd11-b575-424d-a477-bf644e0aa165}, !- Zone Air Node Name
  {8429f31c-be18-41f9-b6b6-7c539fd1044a}, !- Zone Return Air Port List
  ,                                       !- Primary Daylighting Control Name
  ,                                       !- Fraction of Zone Controlled by Primary Daylighting Control
  ,                                       !- Secondary Daylighting Control Name
  ,                                       !- Fraction of Zone Controlled by Secondary Daylighting Control
  ,                                       !- Illuminance Map Name
  ,                                       !- Group Rendering Name
  {4f3d12cc-e7fc-4785-ba96-360139f3724e}, !- Thermostat Name
  No;                                     !- Use Ideal Air Loads

OS:Node,
  {9dcf0f38-899d-4e0d-9ec6-03b3b0ef6994}, !- Handle
  Node 1,                                 !- Name
  {ff12cd11-b575-424d-a477-bf644e0aa165}, !- Inlet Port
  ;                                       !- Outlet Port

OS:Connection,
  {ff12cd11-b575-424d-a477-bf644e0aa165}, !- Handle
  {26cdc66b-61bd-4558-bb65-b09a49e77590}, !- Source Object
  11,                                     !- Outlet Port
  {9dcf0f38-899d-4e0d-9ec6-03b3b0ef6994}, !- Target Object
  2;                                      !- Inlet Port

OS:PortList,
  {4b5d551c-fb72-487d-9107-316d7b1cc1ff}, !- Handle
  {26cdc66b-61bd-4558-bb65-b09a49e77590}, !- HVAC Component
  {651045fc-98dc-439f-abc1-702478d53d0a}; !- Port 1

OS:PortList,
  {345dd839-8140-45fa-8af2-fd4511290515}, !- Handle
  {26cdc66b-61bd-4558-bb65-b09a49e77590}; !- HVAC Component

OS:PortList,
  {8429f31c-be18-41f9-b6b6-7c539fd1044a}, !- Handle
  {26cdc66b-61bd-4558-bb65-b09a49e77590}, !- HVAC Component
  {358fdeb6-8fc0-4bde-a19a-4b7dd9c9c0cf}; !- Port 1

OS:Sizing:Zone,
  {f9d9a501-cfc3-4ee8-be88-acac0a33854b}, !- Handle
  {26cdc66b-61bd-4558-bb65-b09a49e77590}, !- Zone or ZoneList Name
  SupplyAirTemperature,                   !- Zone Cooling Design Supply Air Temperature Input Method
  14,                                     !- Zone Cooling Design Supply Air Temperature {C}
  11.11,                                  !- Zone Cooling Design Supply Air Temperature Difference {deltaC}
  SupplyAirTemperature,                   !- Zone Heating Design Supply Air Temperature Input Method
  40,                                     !- Zone Heating Design Supply Air Temperature {C}
  11.11,                                  !- Zone Heating Design Supply Air Temperature Difference {deltaC}
  0.0085,                                 !- Zone Cooling Design Supply Air Humidity Ratio {kg-H2O/kg-air}
  0.008,                                  !- Zone Heating Design Supply Air Humidity Ratio {kg-H2O/kg-air}
  ,                                       !- Zone Heating Sizing Factor
  ,                                       !- Zone Cooling Sizing Factor
  DesignDay,                              !- Cooling Design Air Flow Method
  ,                                       !- Cooling Design Air Flow Rate {m3/s}
  ,                                       !- Cooling Minimum Air Flow per Zone Floor Area {m3/s-m2}
  ,                                       !- Cooling Minimum Air Flow {m3/s}
  ,                                       !- Cooling Minimum Air Flow Fraction
  DesignDay,                              !- Heating Design Air Flow Method
  ,                                       !- Heating Design Air Flow Rate {m3/s}
  ,                                       !- Heating Maximum Air Flow per Zone Floor Area {m3/s-m2}
  ,                                       !- Heating Maximum Air Flow {m3/s}
  ,                                       !- Heating Maximum Air Flow Fraction
  No,                                     !- Account for Dedicated Outdoor Air System
  NeutralSupplyAir,                       !- Dedicated Outdoor Air System Control Strategy
  autosize,                               !- Dedicated Outdoor Air Low Setpoint Temperature for Design {C}
  autosize,                               !- Dedicated Outdoor Air High Setpoint Temperature for Design {C}
  Sensible Load Only No Latent Load,      !- Zone Load Sizing Method
  HumidityRatioDifference,                !- Zone Latent Cooling Design Supply Air Humidity Ratio Input Method
  ,                                       !- Zone Dehumidification Design Supply Air Humidity Ratio {kgWater/kgDryAir}
  0.005,                                  !- Zone Cooling Design Supply Air Humidity Ratio Difference {kgWater/kgDryAir}
  HumidityRatioDifference,                !- Zone Latent Heating Design Supply Air Humidity Ratio Input Method
  ,                                       !- Zone Humidification Design Supply Air Humidity Ratio {kgWater/kgDryAir}
  0.005,                                  !- Zone Humidification Design Supply Air Humidity Ratio Difference {kgWater/kgDryAir}
  ,                                       !- Zone Humidistat Dehumidification Set Point Schedule Name
  ,                                       !- Zone Humidistat Humidification Set Point Schedule Name
  ,                                       !- Design Zone Air Distribution Effectiveness in Cooling Mode
  ,                                       !- Design Zone Air Distribution Effectiveness in Heating Mode
  ,                                       !- Design Zone Secondary Recirculation Fraction {dimensionless}
  ,                                       !- Design Minimum Zone Ventilation Efficiency {dimensionless}
  Coincident;                             !- Sizing Option

OS:ZoneHVAC:EquipmentList,
  {e8c350fc-5e72-440f-a2c5-126f1b99cc65}, !- Handle
  Zone HVAC Equipment List 1,             !- Name
  {26cdc66b-61bd-4558-bb65-b09a49e77590}, !- Thermal Zone
  ,                                       !- Load Distribution Scheme
  {a033c051-d922-4cea-994b-2e459ad8769c}, !- Zone Equipment 1
  1,                                      !- Zone Equipment Cooling Sequence 1
  1,                                      !- Zone Equipment Heating or No-Load Sequence 1
  {b77a0c66-645d-475c-8683-865cf1e65c86}, !- Zone Equipment Sequential Cooling Fraction Schedule Name 1
  {be3d6a34-f892-4edf-b2a7-8a82750e34f1}; !- Zone Equipment Sequential Heating Fraction Schedule Name 1

OS:AdditionalProperties,
  {47fc2f6b-993f-4f85-9ca9-21f08b90daf4}, !- Handle
  {26cdc66b-61bd-4558-bb65-b09a49e77590}, !- Object Name
  ObjectType,                             !- Feature Name 1
  String,                                 !- Feature Data Type 1
  conditioned space;                      !- Feature Value 1

OS:Space,
  {3198bf9f-fcdd-40f5-98a0-96a34d1f5286}, !- Handle
  conditioned space 1,                    !- Name
  ,                                       !- Space Type Name
  ,                                       !- Default Construction Set Name
  ,                                       !- Default Schedule Set Name
  ,                                       !- Direction of Relative North {deg}
  ,                                       !- X Origin {m}
  ,                                       !- Y Origin {m}
  ,                                       !- Z Origin {m}
  ,                                       !- Building Story Name
  {26cdc66b-61bd-4558-bb65-b09a49e77590}, !- Thermal Zone Name
  ,                                       !- Part of Total Floor Area
  ,                                       !- Design Specification Outdoor Air Object Name
  ,                                       !- Building Unit Name
  692.06373070848;                        !- Volume {m3}

OS:Schedule:Ruleset,
  {65bab078-4a34-4b3e-9b23-81af9d346fe8}, !- Handle
  heating setpoint,                       !- Name
  {7bc79547-6151-4ad1-a0d9-7975a3b00047}, !- Schedule Type Limits Name
  {126a257c-9da5-483b-a7a4-d5bc16f3739d}; !- Default Day Schedule Name

OS:Schedule:Day,
  {126a257c-9da5-483b-a7a4-d5bc16f3739d}, !- Handle
  heating setpoint default day,           !- Name
  {7bc79547-6151-4ad1-a0d9-7975a3b00047}, !- Schedule Type Limits Name
  ,                                       !- Interpolate to Timestep
  24,                                     !- Hour 1
  0,                                      !- Minute 1
  0;                                      !- Value Until Time 1

OS:Schedule:Rule,
  {4f52d2ef-8fc7-4ead-8496-6da62a38e0d7}, !- Handle
  heating setpoint allday rule,           !- Name
  {65bab078-4a34-4b3e-9b23-81af9d346fe8}, !- Schedule Ruleset Name
  0,                                      !- Rule Order
  {d394b6cb-7efa-426f-92d7-99bd90cc3d96}, !- Day Schedule Name
  Yes,                                    !- Apply Sunday
  Yes,                                    !- Apply Monday
  Yes,                                    !- Apply Tuesday
  Yes,                                    !- Apply Wednesday
  Yes,                                    !- Apply Thursday
  Yes,                                    !- Apply Friday
  Yes,                                    !- Apply Saturday
  DateRange,                              !- Date Specification Type
  1,                                      !- Start Month
  1,                                      !- Start Day
  12,                                     !- End Month
  31;                                     !- End Day

OS:Schedule:Day,
  {d394b6cb-7efa-426f-92d7-99bd90cc3d96}, !- Handle
  heating setpoint day,                   !- Name
  {7bc79547-6151-4ad1-a0d9-7975a3b00047}, !- Schedule Type Limits Name
  ,                                       !- Interpolate to Timestep
  24,                                     !- Hour 1
  0,                                      !- Minute 1
  20;                                     !- Value Until Time 1

OS:Schedule:Ruleset,
  {5678844e-d92a-4460-87cd-c42b0f7be252}, !- Handle
  cooling setpoint,                       !- Name
  {7bc79547-6151-4ad1-a0d9-7975a3b00047}, !- Schedule Type Limits Name
  {122fdaac-9fce-4c8b-9dfe-528c1fdd7304}; !- Default Day Schedule Name

OS:Schedule:Day,
  {122fdaac-9fce-4c8b-9dfe-528c1fdd7304}, !- Handle
  cooling setpoint default day,           !- Name
  {7bc79547-6151-4ad1-a0d9-7975a3b00047}, !- Schedule Type Limits Name
  ,                                       !- Interpolate to Timestep
  24,                                     !- Hour 1
  0,                                      !- Minute 1
  0;                                      !- Value Until Time 1

OS:Schedule:Rule,
  {979b0844-46b9-496f-bede-b6f699856edc}, !- Handle
  cooling setpoint allday rule,           !- Name
  {5678844e-d92a-4460-87cd-c42b0f7be252}, !- Schedule Ruleset Name
  0,                                      !- Rule Order
  {ab4459e9-ee2a-4de0-be77-2d061f824bd7}, !- Day Schedule Name
  Yes,                                    !- Apply Sunday
  Yes,                                    !- Apply Monday
  Yes,                                    !- Apply Tuesday
  Yes,                                    !- Apply Wednesday
  Yes,                                    !- Apply Thursday
  Yes,                                    !- Apply Friday
  Yes,                                    !- Apply Saturday
  DateRange,                              !- Date Specification Type
  1,                                      !- Start Month
  1,                                      !- Start Day
  12,                                     !- End Month
  31;                                     !- End Day

OS:Schedule:Day,
  {ab4459e9-ee2a-4de0-be77-2d061f824bd7}, !- Handle
  cooling setpoint day,                   !- Name
  {7bc79547-6151-4ad1-a0d9-7975a3b00047}, !- Schedule Type Limits Name
  ,                                       !- Interpolate to Timestep
  24,                                     !- Hour 1
  0,                                      !- Minute 1
  25.5555555555556;                       !- Value Until Time 1

OS:ThermostatSetpoint:DualSetpoint,
  {4f3d12cc-e7fc-4785-ba96-360139f3724e}, !- Handle
  conditioned space temperature setpoint, !- Name
  {65bab078-4a34-4b3e-9b23-81af9d346fe8}, !- Heating Setpoint Temperature Schedule Name
  {5678844e-d92a-4460-87cd-c42b0f7be252}, !- Cooling Setpoint Temperature Schedule Name
  0;                                      !- Temperature Difference Between Cutout And Setpoint {deltaC}

OS:ScheduleTypeLimits,
  {7bc79547-6151-4ad1-a0d9-7975a3b00047}, !- Handle
  Temperature,                            !- Name
  ,                                       !- Lower Limit Value
  ,                                       !- Upper Limit Value
  Continuous,                             !- Numeric Type
  Temperature;                            !- Unit Type

OS:Surface,
  {e4b6f3c1-4607-4cb5-97d3-645fdd1a0356}, !- Handle
  Roof1,                                  !- Name
  RoofCeiling,                            !- Surface Type
  {b98ee433-d2c3-478e-a596-18fd722c3b22}, !- Construction Name
  {252dab56-3e9b-4fcb-8081-088364ea89c3}, !- Space Name
  Outdoors,                               !- Outside Boundary Condition
  ,                                       !- Outside Boundary Condition Object
  SunExposed,                             !- Sun Exposure
  WindExposed,                            !- Wind Exposure
  ,                                       !- View Factor to Ground
  ,                                       !- Number of Vertices
  -26.9347048849634, 58.0557891618865, 2.4384, !- X,Y,Z Vertex 1 {m}
  -26.9347048849634, 46.7895631136661, 8.0715130241102, !- X,Y,Z Vertex 2 {m}
  -14.3386812381136, 46.7895631136661, 8.0715130241102, !- X,Y,Z Vertex 3 {m}
  -14.3386812381136, 58.0557891618865, 2.4384; !- X,Y,Z Vertex 4 {m}

OS:AdditionalProperties,
  {1cd18fe1-b7e8-4e8a-b59e-e8b7bb2fcc27}, !- Handle
  {e4b6f3c1-4607-4cb5-97d3-645fdd1a0356}, !- Object Name
  Length,                                 !- Feature Name 1
  Double,                                 !- Feature Data Type 1
  41.325536899113608,                     !- Feature Value 1
  Width,                                  !- Feature Name 2
  Double,                                 !- Feature Data Type 2
  41.325536899113601,                     !- Feature Value 2
  Azimuth,                                !- Feature Name 3
  Integer,                                !- Feature Data Type 3
  0,                                      !- Feature Value 3
  Tilt,                                   !- Feature Name 4
  Double,                                 !- Feature Data Type 4
  0.5,                                    !- Feature Value 4
  SurfaceType,                            !- Feature Name 5
  String,                                 !- Feature Data Type 5
  Roof;                                   !- Feature Value 5

OS:ThermalZone,
  {3bd55837-2a7c-4ab5-9466-625ed7a93978}, !- Handle
  attic - vented,                         !- Name
  1,                                      !- Multiplier
  ,                                       !- Ceiling Height {m}
  356.390921899745,                       !- Volume {m3}
  ,                                       !- Floor Area {m2}
  ,                                       !- Zone Inside Convection Algorithm
  ,                                       !- Zone Outside Convection Algorithm
  ,                                       !- Zone Conditioning Equipment List Name
  {64c856ab-9a0d-4018-8645-c0aff6b64865}, !- Zone Air Inlet Port List
  {07ae194d-568e-4c11-9c00-edb37a08e422}, !- Zone Air Exhaust Port List
  {f8c33ba7-d514-4303-bc43-f178256c34ee}, !- Zone Air Node Name
  {2c87a94c-7ed4-4dc7-b9a8-ed2cc7cc83fd}, !- Zone Return Air Port List
  ,                                       !- Primary Daylighting Control Name
  ,                                       !- Fraction of Zone Controlled by Primary Daylighting Control
  ,                                       !- Secondary Daylighting Control Name
  ,                                       !- Fraction of Zone Controlled by Secondary Daylighting Control
  ,                                       !- Illuminance Map Name
  ,                                       !- Group Rendering Name
  ,                                       !- Thermostat Name
  No;                                     !- Use Ideal Air Loads

OS:Node,
  {e1adc200-de9f-4254-8c98-004e660903e5}, !- Handle
  Node 2,                                 !- Name
  {f8c33ba7-d514-4303-bc43-f178256c34ee}, !- Inlet Port
  ;                                       !- Outlet Port

OS:Connection,
  {f8c33ba7-d514-4303-bc43-f178256c34ee}, !- Handle
  {3bd55837-2a7c-4ab5-9466-625ed7a93978}, !- Source Object
  11,                                     !- Outlet Port
  {e1adc200-de9f-4254-8c98-004e660903e5}, !- Target Object
  2;                                      !- Inlet Port

OS:PortList,
  {64c856ab-9a0d-4018-8645-c0aff6b64865}, !- Handle
  {3bd55837-2a7c-4ab5-9466-625ed7a93978}; !- HVAC Component

OS:PortList,
  {07ae194d-568e-4c11-9c00-edb37a08e422}, !- Handle
  {3bd55837-2a7c-4ab5-9466-625ed7a93978}; !- HVAC Component

OS:PortList,
  {2c87a94c-7ed4-4dc7-b9a8-ed2cc7cc83fd}, !- Handle
  {3bd55837-2a7c-4ab5-9466-625ed7a93978}; !- HVAC Component

OS:Sizing:Zone,
  {3f6ede74-9973-4479-a8b3-a2ad0ef67d82}, !- Handle
  {3bd55837-2a7c-4ab5-9466-625ed7a93978}, !- Zone or ZoneList Name
  SupplyAirTemperature,                   !- Zone Cooling Design Supply Air Temperature Input Method
  14,                                     !- Zone Cooling Design Supply Air Temperature {C}
  11.11,                                  !- Zone Cooling Design Supply Air Temperature Difference {deltaC}
  SupplyAirTemperature,                   !- Zone Heating Design Supply Air Temperature Input Method
  40,                                     !- Zone Heating Design Supply Air Temperature {C}
  11.11,                                  !- Zone Heating Design Supply Air Temperature Difference {deltaC}
  0.0085,                                 !- Zone Cooling Design Supply Air Humidity Ratio {kg-H2O/kg-air}
  0.008,                                  !- Zone Heating Design Supply Air Humidity Ratio {kg-H2O/kg-air}
  ,                                       !- Zone Heating Sizing Factor
  ,                                       !- Zone Cooling Sizing Factor
  DesignDay,                              !- Cooling Design Air Flow Method
  ,                                       !- Cooling Design Air Flow Rate {m3/s}
  ,                                       !- Cooling Minimum Air Flow per Zone Floor Area {m3/s-m2}
  ,                                       !- Cooling Minimum Air Flow {m3/s}
  ,                                       !- Cooling Minimum Air Flow Fraction
  DesignDay,                              !- Heating Design Air Flow Method
  ,                                       !- Heating Design Air Flow Rate {m3/s}
  ,                                       !- Heating Maximum Air Flow per Zone Floor Area {m3/s-m2}
  ,                                       !- Heating Maximum Air Flow {m3/s}
  ,                                       !- Heating Maximum Air Flow Fraction
  No,                                     !- Account for Dedicated Outdoor Air System
  NeutralSupplyAir,                       !- Dedicated Outdoor Air System Control Strategy
  autosize,                               !- Dedicated Outdoor Air Low Setpoint Temperature for Design {C}
  autosize,                               !- Dedicated Outdoor Air High Setpoint Temperature for Design {C}
  Sensible Load Only No Latent Load,      !- Zone Load Sizing Method
  HumidityRatioDifference,                !- Zone Latent Cooling Design Supply Air Humidity Ratio Input Method
  ,                                       !- Zone Dehumidification Design Supply Air Humidity Ratio {kgWater/kgDryAir}
  0.005,                                  !- Zone Cooling Design Supply Air Humidity Ratio Difference {kgWater/kgDryAir}
  HumidityRatioDifference,                !- Zone Latent Heating Design Supply Air Humidity Ratio Input Method
  ,                                       !- Zone Humidification Design Supply Air Humidity Ratio {kgWater/kgDryAir}
  0.005,                                  !- Zone Humidification Design Supply Air Humidity Ratio Difference {kgWater/kgDryAir}
  ,                                       !- Zone Humidistat Dehumidification Set Point Schedule Name
  ,                                       !- Zone Humidistat Humidification Set Point Schedule Name
  ,                                       !- Design Zone Air Distribution Effectiveness in Cooling Mode
  ,                                       !- Design Zone Air Distribution Effectiveness in Heating Mode
  ,                                       !- Design Zone Secondary Recirculation Fraction {dimensionless}
  ,                                       !- Design Minimum Zone Ventilation Efficiency {dimensionless}
  Coincident;                             !- Sizing Option

OS:ZoneHVAC:EquipmentList,
  {0639979b-19f4-4a77-9172-2cd59ffc7a11}, !- Handle
  Zone HVAC Equipment List 2,             !- Name
  {3bd55837-2a7c-4ab5-9466-625ed7a93978}; !- Thermal Zone

OS:AdditionalProperties,
  {13507a0d-54f0-4d3c-b6de-231f2b876b19}, !- Handle
  {3bd55837-2a7c-4ab5-9466-625ed7a93978}, !- Object Name
  ObjectType,                             !- Feature Name 1
  String,                                 !- Feature Data Type 1
  attic - vented;                         !- Feature Value 1

OS:Space,
  {252dab56-3e9b-4fcb-8081-088364ea89c3}, !- Handle
  attic - vented 1,                       !- Name
  ,                                       !- Space Type Name
  ,                                       !- Default Construction Set Name
  ,                                       !- Default Schedule Set Name
  ,                                       !- Direction of Relative North {deg}
  ,                                       !- X Origin {m}
  ,                                       !- Y Origin {m}
  ,                                       !- Z Origin {m}
  ,                                       !- Building Story Name
  {3bd55837-2a7c-4ab5-9466-625ed7a93978}, !- Thermal Zone Name
  ,                                       !- Part of Total Floor Area
  ,                                       !- Design Specification Outdoor Air Object Name
  ,                                       !- Building Unit Name
  356.390921899745;                       !- Volume {m3}

OS:Material,
  {853b2623-2246-4831-82ce-b07ed7e646f5}, !- Handle
  asphalt or fiberglass shingles,         !- Name
  Rough,                                  !- Roughness
  0.00635,                                !- Thickness {m}
  0.162714,                               !- Conductivity {W/m-K}
  1121.4,                                 !- Density {kg/m3}
  1465.45,                                !- Specific Heat {J/kg-K}
  0.9,                                    !- Thermal Absorptance
  0.85,                                   !- Solar Absorptance