
OS:Version,
  {59ca9c92-fcc0-4d72-a38a-e49441444471}, !- Handle
  3.10.0;                                 !- Version Identifier

OS:SimulationControl,
  {1cdda4e0-9d28-4f1d-98ea-d964e1ab003d}, !- Handle
  ,                                       !- Do Zone Sizing Calculation
  ,                                       !- Do System Sizing Calculation
  ,                                       !- Do Plant Sizing Calculation
  No;                                     !- Run Simulation for Sizing Periods

OS:Timestep,
  {6f467eea-e7bc-44ae-8be5-f372f60658bb}, !- Handle
  1;                                      !- Number of Timesteps per Hour

OS:ShadowCalculation,
  {a9670830-e97e-4a4c-8410-0a2fd9a47cdb}, !- Handle
  PolygonClipping,                        !- Shading Calculation Method
  ,                                       !- Shading Calculation Update Frequency Method
  20,                                     !- Shading Calculation Update Frequency
  200,                                    !- Maximum Figures in Shadow Overlap Calculations
  ,                                       !- Polygon Clipping Algorithm
  512,                                    !- Pixel Counting Resolution
  ,                                       !- Sky Diffuse Modeling Algorithm
  No,                                     !- Output External Shading Calculation Results
  No,                                     !- Disable Self-Shading Within Shading Zone Groups
  No;                                     !- Disable Self-Shading From Shading Zone Groups to Other Zones

OS:SurfaceConvectionAlgorithm:Outside,
  {98af6192-a21f-40c5-9a1a-297f36e6994c}, !- Handle
  DOE-2;                                  !- Algorithm

OS:SurfaceConvectionAlgorithm:Inside,
  {80b56925-1336-43c2-935a-0a583fc57698}, !- Handle
  TARP;                                   !- Algorithm

OS:ZoneCapacitanceMultiplier:ResearchSpecial,
  {7149c75e-5f92-432a-bf35-48577bdf5278}, !- Handle
  7,                                      !- Temperature Capacity Multiplier
  15,                                     !- Humidity Capacity Multiplier
  ;                                       !- Carbon Dioxide Capacity Multiplier

OS:ConvergenceLimits,
  {5eb9157d-bd32-4be0-ad93-87b16b7e3632}, !- Handle
  0;                                      !- Minimum System Timestep {minutes}

OS:RunPeriod,
  {a9e11144-7d11-4107-8d61-e643c1e42a61}, !- Handle
  Run Period 1,                           !- Name
  1,                                      !- Begin Month
  1,                                      !- Begin Day of Month
  12,                                     !- End Month
  31,                                     !- End Day of Month
  ,                                       !- Use Weather File Holidays and Special Days
  ,                                       !- Use Weather File Daylight Saving Period
  ,                                       !- Apply Weekend Holiday Rule
  ,                                       !- Use Weather File Rain Indicators
  ,                                       !- Use Weather File Snow Indicators
  ;                                       !- Number of Times Runperiod to be Repeated

OS:PerformancePrecisionTradeoffs,
  {8c24a987-5d2f-4363-8874-2f80fbf6d575}, !- Handle
  ,                                       !- Use Coil Direct Solutions
  CarrollMRT;                             !- Zone Radiant Exchange Algorithm

OS:WeatherFile,
  {eabd9d20-8467-4559-beb9-198528e70228}, !- Handle
  Buffalo Niagara Intl Ap,                !- City
  NY,                                     !- State Province Region
  USA,                                    !- Country
  TMY3,                                   !- Data Source
  725280,                                 !- WMO Number
  42.93,                                  !- Latitude {deg}
  -78.73,                                 !- Longitude {deg}
  -5,                                     !- Time Zone {hr}
  215,                                    !- Elevation {m}
  /Users/nmoore/github/urbanopt-example-geojson-project/example_project/weather/USA_NY_Buffalo-Greater.Buffalo.Intl.AP.725280_TMY3.epw, !- Url
  6B50E0FF,                               !- Checksum
  ,                                       !- Start Date Actual Year
  Sunday;                                 !- Start Day of Week

OS:YearDescription,
  {cb484a7a-b391-428f-a984-fa8cccadd620}, !- Handle
  2007,                                   !- Calendar Year
  ,                                       !- Day of Week for Start Day
  ;                                       !- Is Leap Year

OS:Site,
  {134c0517-cf2e-4f3a-9d9a-0036643ce0a1}, !- Handle
  Buffalo Niagara Intl Ap_NY,             !- Name
  42.93,                                  !- Latitude {deg}
  -78.73,                                 !- Longitude {deg}
  -5,                                     !- Time Zone {hr}
  215,                                    !- Elevation {m}
  Suburbs,                                !- Terrain
  Yes;                                    !- Keep Site Location Information

OS:RunPeriodControl:DaylightSavingTime,
  {4852e713-492a-4f38-b2d7-e6903964fd4b}, !- Handle
  Mar 12,                                 !- Start Date
  Nov 5;                                  !- End Date

OS:Site:GroundTemperature:Shallow,
  {5ee0f86f-9ce0-4b04-b621-5f76ee45ea7e}, !- Handle
  4.30207395723828,                       !- January Surface Ground Temperature {C}
  2.29327249652502,                       !- February Surface Ground Temperature {C}
  2.13240047156047,                       !- March Surface Ground Temperature {C}
  3.08567940719286,                       !- April Surface Ground Temperature {C}
  6.91256312497526,                       !- May Surface Ground Temperature {C}
  10.7216195949507,                       !- June Surface Ground Temperature {C}
  14.0238679822574,                       !- July Surface Ground Temperature {C}
  16.1157611184724,                       !- August Surface Ground Temperature {C}
  16.2934789303462,                       !- September Surface Ground Temperature {C}
  14.5920754632847,                       !- October Surface Ground Temperature {C}
  11.374036348653,                        !- November Surface Ground Temperature {C}
  7.68182621661674;                       !- December Surface Ground Temperature {C}

OS:ThermalZone,
  {55388b7f-e41a-4a18-9479-1646a7a630aa}, !- Handle
  conditioned space,                      !- Name
  1,                                      !- Multiplier
  ,                                       !- Ceiling Height {m}
  692.06373070848,                        !- Volume {m3}
  ,                                       !- Floor Area {m2}
  ,                                       !- Zone Inside Convection Algorithm
  ,                                       !- Zone Outside Convection Algorithm
  ,                                       !- Zone Conditioning Equipment List Name
  {b846f57f-c95d-40bc-a12f-4218c19f3c46}, !- Zone Air Inlet Port List
  {6827e4ef-e730-4453-99e4-3921b0764a56}, !- Zone Air Exhaust Port List
  {7b314949-2ac6-4c2c-9efa-dc81de113070}, !- Zone Air Node Name
  {f2743f0c-db02-4904-aae7-53b2784d11ad}, !- Zone Return Air Port List
  ,                                       !- Primary Daylighting Control Name
  ,                                       !- Fraction of Zone Controlled by Primary Daylighting Control
  ,                                       !- Secondary Daylighting Control Name
  ,                                       !- Fraction of Zone Controlled by Secondary Daylighting Control
  ,                                       !- Illuminance Map Name
  ,                                       !- Group Rendering Name
  {2fe4aa87-8352-4898-9349-6c4643f9d19f}, !- Thermostat Name
  No;                                     !- Use Ideal Air Loads

OS:Node,
  {0e7052b9-baf5-43ea-8e70-e7504f4bc112}, !- Handle
  Node 1,                                 !- Name
  {7b314949-2ac6-4c2c-9efa-dc81de113070}, !- Inlet Port
  ;                                       !- Outlet Port

OS:Connection,
  {7b314949-2ac6-4c2c-9efa-dc81de113070}, !- Handle
  {55388b7f-e41a-4a18-9479-1646a7a630aa}, !- Source Object
  11,                                     !- Outlet Port
  {0e7052b9-baf5-43ea-8e70-e7504f4bc112}, !- Target Object
  2;                                      !- Inlet Port

OS:PortList,
  {b846f57f-c95d-40bc-a12f-4218c19f3c46}, !- Handle
  {55388b7f-e41a-4a18-9479-1646a7a630aa}, !- HVAC Component
  {78a63984-6ef9-4d95-9243-366b93e3db7b}; !- Port 1

OS:PortList,
  {6827e4ef-e730-4453-99e4-3921b0764a56}, !- Handle
  {55388b7f-e41a-4a18-9479-1646a7a630aa}; !- HVAC Component

OS:PortList,
  {f2743f0c-db02-4904-aae7-53b2784d11ad}, !- Handle
  {55388b7f-e41a-4a18-9479-1646a7a630aa}, !- HVAC Component
  {f80dc394-5a42-461c-acaf-ef4a01f65a74}; !- Port 1

OS:Sizing:Zone,
  {a23762e2-bbd8-41a5-b6bf-60df2a0e3cac}, !- Handle
  {55388b7f-e41a-4a18-9479-1646a7a630aa}, !- Zone or ZoneList Name
  SupplyAirTemperature,                   !- Zone Cooling Design Supply Air Temperature Input Method
  14,                                     !- Zone Cooling Design Supply Air Temperature {C}
  11.11,                                  !- Zone Cooling Design Supply Air Temperature Difference {deltaC}
  SupplyAirTemperature,                   !- Zone Heating Design Supply Air Temperature Input Method
  40,                                     !- Zone Heating Design Supply Air Temperature {C}
  11.11,                                  !- Zone Heating Design Supply Air Temperature Difference {deltaC}
  0.0085,                                 !- Zone Cooling Design Supply Air Humidity Ratio {kg-H2O/kg-air}
  0.008,                                  !- Zone Heating Design Supply Air Humidity Ratio {kg-H2O/kg-air}
  ,                                       !- Zone Heating Sizing Factor
  ,                                       !- Zone Cooling Sizing Factor
  DesignDay,                              !- Cooling Design Air Flow Method
  ,                                       !- Cooling Design Air Flow Rate {m3/s}
  ,                                       !- Cooling Minimum Air Flow per Zone Floor Area {m3/s-m2}
  ,                                       !- Cooling Minimum Air Flow {m3/s}
  ,                                       !- Cooling Minimum Air Flow Fraction
  DesignDay,                              !- Heating Design Air Flow Method
  ,                                       !- Heating Design Air Flow Rate {m3/s}
  ,                                       !- Heating Maximum Air Flow per Zone Floor Area {m3/s-m2}
  ,                                       !- Heating Maximum Air Flow {m3/s}
  ,                                       !- Heating Maximum Air Flow Fraction
  No,                                     !- Account for Dedicated Outdoor Air System
  NeutralSupplyAir,                       !- Dedicated Outdoor Air System Control Strategy
  autosize,                               !- Dedicated Outdoor Air Low Setpoint Temperature for Design {C}
  autosize,                               !- Dedicated Outdoor Air High Setpoint Temperature for Design {C}
  Sensible Load Only No Latent Load,      !- Zone Load Sizing Method
  HumidityRatioDifference,                !- Zone Latent Cooling Design Supply Air Humidity Ratio Input Method
  ,                                       !- Zone Dehumidification Design Supply Air Humidity Ratio {kgWater/kgDryAir}
  0.005,                                  !- Zone Cooling Design Supply Air Humidity Ratio Difference {kgWater/kgDryAir}
  HumidityRatioDifference,                !- Zone Latent Heating Design Supply Air Humidity Ratio Input Method
  ,                                       !- Zone Humidification Design Supply Air Humidity Ratio {kgWater/kgDryAir}
  0.005,                                  !- Zone Humidification Design Supply Air Humidity Ratio Difference {kgWater/kgDryAir}
  ,                                       !- Zone Humidistat Dehumidification Set Point Schedule Name
  ,                                       !- Zone Humidistat Humidification Set Point Schedule Name
  ,                                       !- Design Zone Air Distribution Effectiveness in Cooling Mode
  ,                                       !- Design Zone Air Distribution Effectiveness in Heating Mode
  ,                                       !- Design Zone Secondary Recirculation Fraction {dimensionless}
  ,                                       !- Design Minimum Zone Ventilation Efficiency {dimensionless}
  Coincident;                             !- Sizing Option

OS:ZoneHVAC:EquipmentList,
  {5c1f7e55-f15c-4f07-ac46-66af97f68ad1}, !- Handle
  Zone HVAC Equipment List 1,             !- Name
  {55388b7f-e41a-4a18-9479-1646a7a630aa}, !- Thermal Zone
  ,                                       !- Load Distribution Scheme
  {35dd3c3e-711e-4183-bf42-304b67feb119}, !- Zone Equipment 1
  1,                                      !- Zone Equipment Cooling Sequence 1
  1,                                      !- Zone Equipment Heating or No-Load Sequence 1
  {14d1d62c-a424-40c8-92b3-4503dcfe4066}, !- Zone Equipment Sequential Cooling Fraction Schedule Name 1
  {c4be8a1a-9e21-4b06-9044-86376c6b0d9c}; !- Zone Equipment Sequential Heating Fraction Schedule Name 1

OS:AdditionalProperties,
  {a7a3cd43-a449-4735-a2d4-348ac2cc4f53}, !- Handle
  {55388b7f-e41a-4a18-9479-1646a7a630aa}, !- Object Name
  ObjectType,                             !- Feature Name 1
  String,                                 !- Feature Data Type 1
  conditioned space;                      !- Feature Value 1

OS:Space,
  {ff875855-1b64-46be-8516-8641bcdb320f}, !- Handle
  conditioned space 1,                    !- Name
  ,                                       !- Space Type Name
  ,                                       !- Default Construction Set Name
  ,                                       !- Default Schedule Set Name
  ,                                       !- Direction of Relative North {deg}
  ,                                       !- X Origin {m}
  ,                                       !- Y Origin {m}
  ,                                       !- Z Origin {m}
  ,                                       !- Building Story Name
  {55388b7f-e41a-4a18-9479-1646a7a630aa}, !- Thermal Zone Name
  ,                                       !- Part of Total Floor Area
  ,                                       !- Design Specification Outdoor Air Object Name
  ,                                       !- Building Unit Name
  692.06373070848;                        !- Volume {m3}

OS:Schedule:Ruleset,
  {ef319117-0e6f-4eca-a4ff-0bd777221fb5}, !- Handle
  heating setpoint,                       !- Name
  {40ba13f0-d9b4-460d-8360-b3f5c4fb0c81}, !- Schedule Type Limits Name
  {662092b0-6159-470f-9322-cb5c5846e643}; !- Default Day Schedule Name

OS:Schedule:Day,
  {662092b0-6159-470f-9322-cb5c5846e643}, !- Handle
  heating setpoint default day,           !- Name
  {40ba13f0-d9b4-460d-8360-b3f5c4fb0c81}, !- Schedule Type Limits Name
  ,                                       !- Interpolate to Timestep
  24,                                     !- Hour 1
  0,                                      !- Minute 1
  0;                                      !- Value Until Time 1

OS:Schedule:Rule,
  {08c1325c-c8c7-43af-ade9-6c026ab13001}, !- Handle
  heating setpoint allday rule,           !- Name
  {ef319117-0e6f-4eca-a4ff-0bd777221fb5}, !- Schedule Ruleset Name
  0,                                      !- Rule Order
  {f6d5d537-fe63-4f19-a904-6e68352b9e4d}, !- Day Schedule Name
  Yes,                                    !- Apply Sunday
  Yes,                                    !- Apply Monday
  Yes,                                    !- Apply Tuesday
  Yes,                                    !- Apply Wednesday
  Yes,                                    !- Apply Thursday
  Yes,                                    !- Apply Friday
  Yes,                                    !- Apply Saturday
  DateRange,                              !- Date Specification Type
  1,                                      !- Start Month
  1,                                      !- Start Day
  12,                                     !- End Month
  31;                                     !- End Day

OS:Schedule:Day,
  {f6d5d537-fe63-4f19-a904-6e68352b9e4d}, !- Handle
  heating setpoint day,                   !- Name
  {40ba13f0-d9b4-460d-8360-b3f5c4fb0c81}, !- Schedule Type Limits Name
  ,                                       !- Interpolate to Timestep
  24,                                     !- Hour 1
  0,                                      !- Minute 1
  20;                                     !- Value Until Time 1

OS:Schedule:Ruleset,
  {2e01e288-da2d-42a8-8ad5-da0040d5f38b}, !- Handle
  cooling setpoint,                       !- Name
  {40ba13f0-d9b4-460d-8360-b3f5c4fb0c81}, !- Schedule Type Limits Name
  {52821005-9374-43e8-90a0-be9392e3e9d6}; !- Default Day Schedule Name

OS:Schedule:Day,
  {52821005-9374-43e8-90a0-be9392e3e9d6}, !- Handle
  cooling setpoint default day,           !- Name
  {40ba13f0-d9b4-460d-8360-b3f5c4fb0c81}, !- Schedule Type Limits Name
  ,                                       !- Interpolate to Timestep
  24,                                     !- Hour 1
  0,                                      !- Minute 1
  0;                                      !- Value Until Time 1

OS:Schedule:Rule,
  {d59e58de-b444-4c51-bdd5-ae99f39e01a7}, !- Handle
  cooling setpoint allday rule,           !- Name
  {2e01e288-da2d-42a8-8ad5-da0040d5f38b}, !- Schedule Ruleset Name
  0,                                      !- Rule Order
  {8e2f0013-99b5-4a72-a66b-9dfa81bbdd35}, !- Day Schedule Name
  Yes,                                    !- Apply Sunday
  Yes,                                    !- Apply Monday
  Yes,                                    !- Apply Tuesday
  Yes,                                    !- Apply Wednesday
  Yes,                                    !- Apply Thursday
  Yes,                                    !- Apply Friday
  Yes,                                    !- Apply Saturday
  DateRange,                              !- Date Specification Type
  1,                                      !- Start Month
  1,                                      !- Start Day
  12,                                     !- End Month
  31;                                     !- End Day

OS:Schedule:Day,
  {8e2f0013-99b5-4a72-a66b-9dfa81bbdd35}, !- Handle
  cooling setpoint day,                   !- Name
  {40ba13f0-d9b4-460d-8360-b3f5c4fb0c81}, !- Schedule Type Limits Name
  ,                                       !- Interpolate to Timestep
  24,                                     !- Hour 1
  0,                                      !- Minute 1
  25.5555555555556;                       !- Value Until Time 1

OS:ThermostatSetpoint:DualSetpoint,
  {2fe4aa87-8352-4898-9349-6c4643f9d19f}, !- Handle
  conditioned space temperature setpoint, !- Name
  {ef319117-0e6f-4eca-a4ff-0bd777221fb5}, !- Heating Setpoint Temperature Schedule Name
  {2e01e288-da2d-42a8-8ad5-da0040d5f38b}, !- Cooling Setpoint Temperature Schedule Name
  0;                                      !- Temperature Difference Between Cutout And Setpoint {deltaC}

OS:ScheduleTypeLimits,
  {40ba13f0-d9b4-460d-8360-b3f5c4fb0c81}, !- Handle
  Temperature,                            !- Name
  ,                                       !- Lower Limit Value
  ,                                       !- Upper Limit Value
  Continuous,                             !- Numeric Type
  Temperature;                            !- Unit Type

OS:Surface,
  {4d05a733-8a6e-4d66-951b-2277c5377a3a}, !- Handle
  Roof1,                                  !- Name
  RoofCeiling,                            !- Surface Type
  {559263c1-18a9-4e85-8bf5-b08fca41caea}, !- Construction Name
  {784c1eb6-31da-43ad-9146-6c9d41e856b5}, !- Space Name
  Outdoors,                               !- Outside Boundary Condition
  ,                                       !- Outside Boundary Condition Object
  SunExposed,                             !- Sun Exposure
  WindExposed,                            !- Wind Exposure
  ,                                       !- View Factor to Ground
  ,                                       !- Number of Vertices
  -26.9347048849634, 58.0557891618865, 2.4384, !- X,Y,Z Vertex 1 {m}
  -26.9347048849634, 46.7895631136661, 8.0715130241102, !- X,Y,Z Vertex 2 {m}
  -14.3386812381136, 46.7895631136661, 8.0715130241102, !- X,Y,Z Vertex 3 {m}
  -14.3386812381136, 58.0557891618865, 2.4384; !- X,Y,Z Vertex 4 {m}

OS:AdditionalProperties,
  {8bda1eb8-b137-43eb-9aa5-c3ef77ca1e53}, !- Handle
  {4d05a733-8a6e-4d66-951b-2277c5377a3a}, !- Object Name
  Length,                                 !- Feature Name 1
  Double,                                 !- Feature Data Type 1
  41.325536899113608,                     !- Feature Value 1
  Width,                                  !- Feature Name 2
  Double,                                 !- Feature Data Type 2
  41.325536899113601,                     !- Feature Value 2
  Azimuth,                                !- Feature Name 3
  Integer,                                !- Feature Data Type 3
  0,                                      !- Feature Value 3
  Tilt,                                   !- Feature Name 4
  Double,                                 !- Feature Data Type 4
  0.5,                                    !- Feature Value 4
  SurfaceType,                            !- Feature Name 5
  String,                                 !- Feature Data Type 5
  Roof;                                   !- Feature Value 5

OS:ThermalZone,
  {c769d157-fb0c-4b17-97e4-7528fdfd4758}, !- Handle
  attic - vented,                         !- Name
  1,                                      !- Multiplier
  ,                                       !- Ceiling Height {m}
  356.390921899745,                       !- Volume {m3}
  ,                                       !- Floor Area {m2}
  ,                                       !- Zone Inside Convection Algorithm
  ,                                       !- Zone Outside Convection Algorithm
  ,                                       !- Zone Conditioning Equipment List Name
  {a7d784c6-c99a-42d3-b3e1-b09c11b3f926}, !- Zone Air Inlet Port List
  {a41ad110-c59c-4da5-b19c-4b69b06a8855}, !- Zone Air Exhaust Port List
  {99ee6f2b-f3a0-4db0-821c-73d28a2b65e0}, !- Zone Air Node Name
  {4a47e65c-6f07-4a18-90d9-b58e7c727f3e}, !- Zone Return Air Port List
  ,                                       !- Primary Daylighting Control Name
  ,                                       !- Fraction of Zone Controlled by Primary Daylighting Control
  ,                                       !- Secondary Daylighting Control Name
  ,                                       !- Fraction of Zone Controlled by Secondary Daylighting Control
  ,                                       !- Illuminance Map Name
  ,                                       !- Group Rendering Name
  ,                                       !- Thermostat Name
  No;                                     !- Use Ideal Air Loads

OS:Node,
  {aabe8435-7a54-4006-abd4-191db6c5616c}, !- Handle
  Node 2,                                 !- Name
  {99ee6f2b-f3a0-4db0-821c-73d28a2b65e0}, !- Inlet Port
  ;                                       !- Outlet Port

OS:Connection,
  {99ee6f2b-f3a0-4db0-821c-73d28a2b65e0}, !- Handle
  {c769d157-fb0c-4b17-97e4-7528fdfd4758}, !- Source Object
  11,                                     !- Outlet Port
  {aabe8435-7a54-4006-abd4-191db6c5616c}, !- Target Object
  2;                                      !- Inlet Port

OS:PortList,
  {a7d784c6-c99a-42d3-b3e1-b09c11b3f926}, !- Handle
  {c769d157-fb0c-4b17-97e4-7528fdfd4758}; !- HVAC Component

OS:PortList,
  {a41ad110-c59c-4da5-b19c-4b69b06a8855}, !- Handle
  {c769d157-fb0c-4b17-97e4-7528fdfd4758}; !- HVAC Component

OS:PortList,
  {4a47e65c-6f07-4a18-90d9-b58e7c727f3e}, !- Handle
  {c769d157-fb0c-4b17-97e4-7528fdfd4758}; !- HVAC Component

OS:Sizing:Zone,
  {781518bb-21cf-4d64-a328-46d1add6a951}, !- Handle
  {c769d157-fb0c-4b17-97e4-7528fdfd4758}, !- Zone or ZoneList Name
  SupplyAirTemperature,                   !- Zone Cooling Design Supply Air Temperature Input Method
  14,                                     !- Zone Cooling Design Supply Air Temperature {C}
  11.11,                                  !- Zone Cooling Design Supply Air Temperature Difference {deltaC}
  SupplyAirTemperature,                   !- Zone Heating Design Supply Air Temperature Input Method
  40,                                     !- Zone Heating Design Supply Air Temperature {C}
  11.11,                                  !- Zone Heating Design Supply Air Temperature Difference {deltaC}
  0.0085,                                 !- Zone Cooling Design Supply Air Humidity Ratio {kg-H2O/kg-air}
  0.008,                                  !- Zone Heating Design Supply Air Humidity Ratio {kg-H2O/kg-air}
  ,                                       !- Zone Heating Sizing Factor
  ,                                       !- Zone Cooling Sizing Factor
  DesignDay,                              !- Cooling Design Air Flow Method
  ,                                       !- Cooling Design Air Flow Rate {m3/s}
  ,                                       !- Cooling Minimum Air Flow per Zone Floor Area {m3/s-m2}
  ,                                       !- Cooling Minimum Air Flow {m3/s}
  ,                                       !- Cooling Minimum Air Flow Fraction
  DesignDay,                              !- Heating Design Air Flow Method
  ,                                       !- Heating Design Air Flow Rate {m3/s}
  ,                                       !- Heating Maximum Air Flow per Zone Floor Area {m3/s-m2}
  ,                                       !- Heating Maximum Air Flow {m3/s}
  ,                                       !- Heating Maximum Air Flow Fraction
  No,                                     !- Account for Dedicated Outdoor Air System
  NeutralSupplyAir,                       !- Dedicated Outdoor Air System Control Strategy
  autosize,                               !- Dedicated Outdoor Air Low Setpoint Temperature for Design {C}
  autosize,                               !- Dedicated Outdoor Air High Setpoint Temperature for Design {C}
  Sensible Load Only No Latent Load,      !- Zone Load Sizing Method
  HumidityRatioDifference,                !- Zone Latent Cooling Design Supply Air Humidity Ratio Input Method
  ,                                       !- Zone Dehumidification Design Supply Air Humidity Ratio {kgWater/kgDryAir}
  0.005,                                  !- Zone Cooling Design Supply Air Humidity Ratio Difference {kgWater/kgDryAir}
  HumidityRatioDifference,                !- Zone Latent Heating Design Supply Air Humidity Ratio Input Method
  ,                                       !- Zone Humidification Design Supply Air Humidity Ratio {kgWater/kgDryAir}
  0.005,                                  !- Zone Humidification Design Supply Air Humidity Ratio Difference {kgWater/kgDryAir}
  ,                                       !- Zone Humidistat Dehumidification Set Point Schedule Name
  ,                                       !- Zone Humidistat Humidification Set Point Schedule Name
  ,                                       !- Design Zone Air Distribution Effectiveness in Cooling Mode
  ,                                       !- Design Zone Air Distribution Effectiveness in Heating Mode
  ,                                       !- Design Zone Secondary Recirculation Fraction {dimensionless}
  ,                                       !- Design Minimum Zone Ventilation Efficiency {dimensionless}
  Coincident;                             !- Sizing Option

OS:ZoneHVAC:EquipmentList,
  {aec1019b-599c-43db-a4a2-b3153698b26a}, !- Handle
  Zone HVAC Equipment List 2,             !- Name
  {c769d157-fb0c-4b17-97e4-7528fdfd4758}; !- Thermal Zone

OS:AdditionalProperties,
  {6d82e6d5-a18e-4b9f-92aa-6fe074dc315a}, !- Handle
  {c769d157-fb0c-4b17-97e4-7528fdfd4758}, !- Object Name
  ObjectType,                             !- Feature Name 1
  String,                                 !- Feature Data Type 1
  attic - vented;                         !- Feature Value 1

OS:Space,
  {784c1eb6-31da-43ad-9146-6c9d41e856b5}, !- Handle
  attic - vented 1,                       !- Name
  ,                                       !- Space Type Name
  ,                                       !- Default Construction Set Name
  ,                                       !- Default Schedule Set Name
  ,                                       !- Direction of Relative North {deg}
  ,                                       !- X Origin {m}
  ,                                       !- Y Origin {m}
  ,                                       !- Z Origin {m}
  ,                                       !- Building Story Name
  {c769d157-fb0c-4b17-97e4-7528fdfd4758}, !- Thermal Zone Name
  ,                                       !- Part of Total Floor Area
  ,                                       !- Design Specification Outdoor Air Object Name
  ,                                       !- Building Unit Name
  356.390921899745;                       !- Volume {m3}

OS:Material,
  {e09672a1-1e25-473e-81a5-cb9c3501ca6c}, !- Handle
  asphalt or fiberglass shingles,         !- Name
  Rough,                                  !- Roughness
  0.00635,                                !- Thickness {m}
  0.162714,                               !- Conductivity {W/m-K}
  1121.4,                                 !- Density {kg/m3}
  1465.45,                                !- Specific Heat {J/kg-K}
  0.9,                                    !- Thermal Absorptance
  0.85,                                   !- Solar Absorptance