
OS:Version,
  {4f691220-b2f4-4a29-80c5-94daf64722fb}, !- Handle
  3.9.0;                                  !- Version Identifier

OS:SimulationControl,
  {d293bcf9-fb03-4c07-9d1a-a85171943b9c}, !- Handle
  ,                                       !- Do Zone Sizing Calculation
  ,                                       !- Do System Sizing Calculation
  ,                                       !- Do Plant Sizing Calculation
  No;                                     !- Run Simulation for Sizing Periods

OS:Timestep,
  {cac0f7b9-263f-4e2f-8729-ad5616b4401e}, !- Handle
  1;                                      !- Number of Timesteps per Hour

OS:ShadowCalculation,
  {ff16a778-c2cc-489a-b4f8-6ebebaf44769}, !- Handle
  PolygonClipping,                        !- Shading Calculation Method
  ,                                       !- Shading Calculation Update Frequency Method
  20,                                     !- Shading Calculation Update Frequency
  200,                                    !- Maximum Figures in Shadow Overlap Calculations
  ,                                       !- Polygon Clipping Algorithm
  512,                                    !- Pixel Counting Resolution
  ,                                       !- Sky Diffuse Modeling Algorithm
  No,                                     !- Output External Shading Calculation Results
  No,                                     !- Disable Self-Shading Within Shading Zone Groups
  No;                                     !- Disable Self-Shading From Shading Zone Groups to Other Zones

OS:SurfaceConvectionAlgorithm:Outside,
  {d0bcd511-25f9-4f79-bd08-31a7af6e0b9c}, !- Handle
  DOE-2;                                  !- Algorithm

OS:SurfaceConvectionAlgorithm:Inside,
  {310cdbb9-1e3c-4f2e-989d-eeb6d35f0d14}, !- Handle
  TARP;                                   !- Algorithm

OS:ZoneCapacitanceMultiplier:ResearchSpecial,
  {4a7300c7-852a-4914-8e3c-c36e4c140ec8}, !- Handle
  7,                                      !- Temperature Capacity Multiplier
  15,                                     !- Humidity Capacity Multiplier
  ;                                       !- Carbon Dioxide Capacity Multiplier

OS:ConvergenceLimits,
  {8434d85f-1845-440f-8504-5a60bbc67200}, !- Handle
  0;                                      !- Minimum System Timestep {minutes}

OS:RunPeriod,
  {26d3af1e-7062-4ccd-a4a0-1d84bafb765b}, !- Handle
  Run Period 1,                           !- Name
  1,                                      !- Begin Month
  1,                                      !- Begin Day of Month
  12,                                     !- End Month
  31,                                     !- End Day of Month
  ,                                       !- Use Weather File Holidays and Special Days
  ,                                       !- Use Weather File Daylight Saving Period
  ,                                       !- Apply Weekend Holiday Rule
  ,                                       !- Use Weather File Rain Indicators
  ,                                       !- Use Weather File Snow Indicators
  ;                                       !- Number of Times Runperiod to be Repeated

OS:PerformancePrecisionTradeoffs,
  {b6373176-987e-4504-8825-f11bf84586b7}, !- Handle
  ,                                       !- Use Coil Direct Solutions
  CarrollMRT;                             !- Zone Radiant Exchange Algorithm

OS:WeatherFile,
  {73b9f8bd-082e-4684-a016-27e2b1ce3c90}, !- Handle
  Buffalo Niagara Intl Ap,                !- City
  NY,                                     !- State Province Region
  USA,                                    !- Country
  TMY3,                                   !- Data Source
  725280,                                 !- WMO Number
  42.93,                                  !- Latitude {deg}
  -78.73,                                 !- Longitude {deg}
  -5,                                     !- Time Zone {hr}
  215,                                    !- Elevation {m}
  /Users/nmoore/github/urbanopt-example-geojson-project/example_project/weather/USA_NY_Buffalo-Greater.Buffalo.Intl.AP.725280_TMY3.epw, !- Url
  6B50E0FF,                               !- Checksum
  ,                                       !- Start Date Actual Year
  Sunday;                                 !- Start Day of Week

OS:YearDescription,
  {40cb961d-9264-48ad-9680-3d771dcad89c}, !- Handle
  2007,                                   !- Calendar Year
  ,                                       !- Day of Week for Start Day
  ;                                       !- Is Leap Year

OS:Site,
  {090d5759-7ccf-4d62-ba06-cbecd9f100f0}, !- Handle
  Buffalo Niagara Intl Ap_NY,             !- Name
  42.93,                                  !- Latitude {deg}
  -78.73,                                 !- Longitude {deg}
  -5,                                     !- Time Zone {hr}
  215,                                    !- Elevation {m}
  Suburbs,                                !- Terrain
  Yes;                                    !- Keep Site Location Information

OS:RunPeriodControl:DaylightSavingTime,
  {ef5507ac-1682-4cb1-8e72-8ae012e1e117}, !- Handle
  Mar 12,                                 !- Start Date
  Nov 5;                                  !- End Date

OS:Site:GroundTemperature:Shallow,
  {de58f198-0aef-41e4-b831-24cd8f6bd318}, !- Handle
  4.30207395723828,                       !- January Surface Ground Temperature {C}
  2.29327249652502,                       !- February Surface Ground Temperature {C}
  2.13240047156047,                       !- March Surface Ground Temperature {C}
  3.08567940719286,                       !- April Surface Ground Temperature {C}
  6.91256312497526,                       !- May Surface Ground Temperature {C}
  10.7216195949507,                       !- June Surface Ground Temperature {C}
  14.0238679822574,                       !- July Surface Ground Temperature {C}
  16.1157611184724,                       !- August Surface Ground Temperature {C}
  16.2934789303462,                       !- September Surface Ground Temperature {C}
  14.5920754632847,                       !- October Surface Ground Temperature {C}
  11.374036348653,                        !- November Surface Ground Temperature {C}
  7.68182621661674;                       !- December Surface Ground Temperature {C}

OS:ThermalZone,
  {02037265-1947-4379-aba1-2dcf89badded}, !- Handle
  conditioned space,                      !- Name
  1,                                      !- Multiplier
  ,                                       !- Ceiling Height {m}
  692.06373070848,                        !- Volume {m3}
  ,                                       !- Floor Area {m2}
  ,                                       !- Zone Inside Convection Algorithm
  ,                                       !- Zone Outside Convection Algorithm
  ,                                       !- Zone Conditioning Equipment List Name
  {699a3e9c-2ae6-4d2b-b9bc-61b053cae0b8}, !- Zone Air Inlet Port List
  {3f9a9144-3085-4911-aa90-657f3e59c904}, !- Zone Air Exhaust Port List
  {d2acbc7c-7bfb-4d45-9900-20c4bead1d7c}, !- Zone Air Node Name
  {9d935788-0a71-4a7d-bc2f-0a6d228db557}, !- Zone Return Air Port List
  ,                                       !- Primary Daylighting Control Name
  ,                                       !- Fraction of Zone Controlled by Primary Daylighting Control
  ,                                       !- Secondary Daylighting Control Name
  ,                                       !- Fraction of Zone Controlled by Secondary Daylighting Control
  ,                                       !- Illuminance Map Name
  ,                                       !- Group Rendering Name
  {cccefaec-7d8c-4b33-b6d7-9e893c76b986}, !- Thermostat Name
  No;                                     !- Use Ideal Air Loads

OS:Node,
  {eca0823e-c37f-4ac3-81bc-4495df9aefc2}, !- Handle
  Node 1,                                 !- Name
  {d2acbc7c-7bfb-4d45-9900-20c4bead1d7c}, !- Inlet Port
  ;                                       !- Outlet Port

OS:Connection,
  {d2acbc7c-7bfb-4d45-9900-20c4bead1d7c}, !- Handle
  {02037265-1947-4379-aba1-2dcf89badded}, !- Source Object
  11,                                     !- Outlet Port
  {eca0823e-c37f-4ac3-81bc-4495df9aefc2}, !- Target Object
  2;                                      !- Inlet Port

OS:PortList,
  {699a3e9c-2ae6-4d2b-b9bc-61b053cae0b8}, !- Handle
  {02037265-1947-4379-aba1-2dcf89badded}, !- HVAC Component
  {60a157a2-5010-4c29-ba56-44975a4b7deb}; !- Port 1

OS:PortList,
  {3f9a9144-3085-4911-aa90-657f3e59c904}, !- Handle
  {02037265-1947-4379-aba1-2dcf89badded}; !- HVAC Component

OS:PortList,
  {9d935788-0a71-4a7d-bc2f-0a6d228db557}, !- Handle
  {02037265-1947-4379-aba1-2dcf89badded}, !- HVAC Component
  {6a1a2276-9e42-4c1d-a039-cb166c59203b}; !- Port 1

OS:Sizing:Zone,
  {662b528b-c7ce-40a7-bf0c-9980e1193240}, !- Handle
  {02037265-1947-4379-aba1-2dcf89badded}, !- Zone or ZoneList Name
  SupplyAirTemperature,                   !- Zone Cooling Design Supply Air Temperature Input Method
  14,                                     !- Zone Cooling Design Supply Air Temperature {C}
  11.11,                                  !- Zone Cooling Design Supply Air Temperature Difference {deltaC}
  SupplyAirTemperature,                   !- Zone Heating Design Supply Air Temperature Input Method
  40,                                     !- Zone Heating Design Supply Air Temperature {C}
  11.11,                                  !- Zone Heating Design Supply Air Temperature Difference {deltaC}
  0.0085,                                 !- Zone Cooling Design Supply Air Humidity Ratio {kg-H2O/kg-air}
  0.008,                                  !- Zone Heating Design Supply Air Humidity Ratio {kg-H2O/kg-air}
  ,                                       !- Zone Heating Sizing Factor
  ,                                       !- Zone Cooling Sizing Factor
  DesignDay,                              !- Cooling Design Air Flow Method
  ,                                       !- Cooling Design Air Flow Rate {m3/s}
  ,                                       !- Cooling Minimum Air Flow per Zone Floor Area {m3/s-m2}
  ,                                       !- Cooling Minimum Air Flow {m3/s}
  ,                                       !- Cooling Minimum Air Flow Fraction
  DesignDay,                              !- Heating Design Air Flow Method
  ,                                       !- Heating Design Air Flow Rate {m3/s}
  ,                                       !- Heating Maximum Air Flow per Zone Floor Area {m3/s-m2}
  ,                                       !- Heating Maximum Air Flow {m3/s}
  ,                                       !- Heating Maximum Air Flow Fraction
  No,                                     !- Account for Dedicated Outdoor Air System
  NeutralSupplyAir,                       !- Dedicated Outdoor Air System Control Strategy
  autosize,                               !- Dedicated Outdoor Air Low Setpoint Temperature for Design {C}
  autosize,                               !- Dedicated Outdoor Air High Setpoint Temperature for Design {C}
  Sensible Load Only No Latent Load,      !- Zone Load Sizing Method
  HumidityRatioDifference,                !- Zone Latent Cooling Design Supply Air Humidity Ratio Input Method
  ,                                       !- Zone Dehumidification Design Supply Air Humidity Ratio {kgWater/kgDryAir}
  0.005,                                  !- Zone Cooling Design Supply Air Humidity Ratio Difference {kgWater/kgDryAir}
  HumidityRatioDifference,                !- Zone Latent Heating Design Supply Air Humidity Ratio Input Method
  ,                                       !- Zone Humidification Design Supply Air Humidity Ratio {kgWater/kgDryAir}
  0.005,                                  !- Zone Humidification Design Supply Air Humidity Ratio Difference {kgWater/kgDryAir}
  ,                                       !- Zone Humidistat Dehumidification Set Point Schedule Name
  ,                                       !- Zone Humidistat Humidification Set Point Schedule Name
  ,                                       !- Design Zone Air Distribution Effectiveness in Cooling Mode
  ,                                       !- Design Zone Air Distribution Effectiveness in Heating Mode
  ,                                       !- Design Zone Secondary Recirculation Fraction {dimensionless}
  ,                                       !- Design Minimum Zone Ventilation Efficiency {dimensionless}
  Coincident;                             !- Sizing Option

OS:ZoneHVAC:EquipmentList,
  {7eb1e63d-6f99-4cf8-afec-2df4a298952d}, !- Handle
  Zone HVAC Equipment List 1,             !- Name
  {02037265-1947-4379-aba1-2dcf89badded}, !- Thermal Zone
  ,                                       !- Load Distribution Scheme
  {5400ca82-174b-4c8b-83e9-d3e673d0f700}, !- Zone Equipment 1
  1,                                      !- Zone Equipment Cooling Sequence 1
  1,                                      !- Zone Equipment Heating or No-Load Sequence 1
  {f26bd153-3d29-4f7e-a94d-1723f82438c8}, !- Zone Equipment Sequential Cooling Fraction Schedule Name 1
  {636cbbb2-ba39-423f-9e1e-a9420859aa18}; !- Zone Equipment Sequential Heating Fraction Schedule Name 1

OS:AdditionalProperties,
  {93cc0d38-9287-44d0-9a54-57486f25cf01}, !- Handle
  {02037265-1947-4379-aba1-2dcf89badded}, !- Object Name
  ObjectType,                             !- Feature Name 1
  String,                                 !- Feature Data Type 1
  conditioned space;                      !- Feature Value 1

OS:Space,
  {4d5b169d-411b-4e6e-b665-678c3b31e27b}, !- Handle
  conditioned space 1,                    !- Name
  ,                                       !- Space Type Name
  ,                                       !- Default Construction Set Name
  ,                                       !- Default Schedule Set Name
  ,                                       !- Direction of Relative North {deg}
  ,                                       !- X Origin {m}
  ,                                       !- Y Origin {m}
  ,                                       !- Z Origin {m}
  ,                                       !- Building Story Name
  {02037265-1947-4379-aba1-2dcf89badded}, !- Thermal Zone Name
  ,                                       !- Part of Total Floor Area
  ,                                       !- Design Specification Outdoor Air Object Name
  ,                                       !- Building Unit Name
  692.06373070848;                        !- Volume {m3}

OS:Schedule:Ruleset,
  {deb0d129-6131-4ac3-a883-3e5a779b298c}, !- Handle
  heating setpoint,                       !- Name
  {30e054db-8a2d-4422-926d-e1257efd8511}, !- Schedule Type Limits Name
  {9acbca58-f1ca-4acc-a80a-1c3836971085}; !- Default Day Schedule Name

OS:Schedule:Day,
  {9acbca58-f1ca-4acc-a80a-1c3836971085}, !- Handle
  heating setpoint default day,           !- Name
  {30e054db-8a2d-4422-926d-e1257efd8511}, !- Schedule Type Limits Name
  ,                                       !- Interpolate to Timestep
  24,                                     !- Hour 1
  0,                                      !- Minute 1
  0;                                      !- Value Until Time 1

OS:Schedule:Rule,
  {60391fcc-4efa-45f2-a106-9587a773c94b}, !- Handle
  heating setpoint allday rule,           !- Name
  {deb0d129-6131-4ac3-a883-3e5a779b298c}, !- Schedule Ruleset Name
  0,                                      !- Rule Order
  {fda7b6b5-c324-4347-89c5-26107f1cc1b9}, !- Day Schedule Name
  Yes,                                    !- Apply Sunday
  Yes,                                    !- Apply Monday
  Yes,                                    !- Apply Tuesday
  Yes,                                    !- Apply Wednesday
  Yes,                                    !- Apply Thursday
  Yes,                                    !- Apply Friday
  Yes,                                    !- Apply Saturday
  DateRange,                              !- Date Specification Type
  1,                                      !- Start Month
  1,                                      !- Start Day
  12,                                     !- End Month
  31;                                     !- End Day

OS:Schedule:Day,
  {fda7b6b5-c324-4347-89c5-26107f1cc1b9}, !- Handle
  heating setpoint day,                   !- Name
  {30e054db-8a2d-4422-926d-e1257efd8511}, !- Schedule Type Limits Name
  ,                                       !- Interpolate to Timestep
  24,                                     !- Hour 1
  0,                                      !- Minute 1
  20;                                     !- Value Until Time 1

OS:Schedule:Ruleset,
  {aee9b1ef-0d97-4962-970c-516153d8d1fb}, !- Handle
  cooling setpoint,                       !- Name
  {30e054db-8a2d-4422-926d-e1257efd8511}, !- Schedule Type Limits Name
  {ee846250-510d-44a2-ba84-a6d4451f6a4e}; !- Default Day Schedule Name

OS:Schedule:Day,
  {ee846250-510d-44a2-ba84-a6d4451f6a4e}, !- Handle
  cooling setpoint default day,           !- Name
  {30e054db-8a2d-4422-926d-e1257efd8511}, !- Schedule Type Limits Name
  ,                                       !- Interpolate to Timestep
  24,                                     !- Hour 1
  0,                                      !- Minute 1
  0;                                      !- Value Until Time 1

OS:Schedule:Rule,
  {b7ce8191-dffa-49d5-b81b-8de06d9ac289}, !- Handle
  cooling setpoint allday rule,           !- Name
  {aee9b1ef-0d97-4962-970c-516153d8d1fb}, !- Schedule Ruleset Name
  0,                                      !- Rule Order
  {d01752f5-9382-4df8-81e3-dc9e74586819}, !- Day Schedule Name
  Yes,                                    !- Apply Sunday
  Yes,                                    !- Apply Monday
  Yes,                                    !- Apply Tuesday
  Yes,                                    !- Apply Wednesday
  Yes,                                    !- Apply Thursday
  Yes,                                    !- Apply Friday
  Yes,                                    !- Apply Saturday
  DateRange,                              !- Date Specification Type
  1,                                      !- Start Month
  1,                                      !- Start Day
  12,                                     !- End Month
  31;                                     !- End Day

OS:Schedule:Day,
  {d01752f5-9382-4df8-81e3-dc9e74586819}, !- Handle
  cooling setpoint day,                   !- Name
  {30e054db-8a2d-4422-926d-e1257efd8511}, !- Schedule Type Limits Name
  ,                                       !- Interpolate to Timestep
  24,                                     !- Hour 1
  0,                                      !- Minute 1
  25.5555555555556;                       !- Value Until Time 1

OS:ThermostatSetpoint:DualSetpoint,
  {cccefaec-7d8c-4b33-b6d7-9e893c76b986}, !- Handle
  conditioned space temperature setpoint, !- Name
  {deb0d129-6131-4ac3-a883-3e5a779b298c}, !- Heating Setpoint Temperature Schedule Name
  {aee9b1ef-0d97-4962-970c-516153d8d1fb}, !- Cooling Setpoint Temperature Schedule Name
  0;                                      !- Temperature Difference Between Cutout And Setpoint {deltaC}

OS:ScheduleTypeLimits,
  {30e054db-8a2d-4422-926d-e1257efd8511}, !- Handle
  Temperature,                            !- Name
  ,                                       !- Lower Limit Value
  ,                                       !- Upper Limit Value
  Continuous,                             !- Numeric Type
  Temperature;                            !- Unit Type

OS:Surface,
  {c88bac24-0026-42be-a83e-06a69dbd52b4}, !- Handle
  Roof1,                                  !- Name
  RoofCeiling,                            !- Surface Type
  {49617cfb-1a70-4ac7-9d14-afbae4b48dba}, !- Construction Name
  {df339eb0-54e0-456f-8bcf-83e88eb5d51c}, !- Space Name
  Outdoors,                               !- Outside Boundary Condition
  ,                                       !- Outside Boundary Condition Object
  SunExposed,                             !- Sun Exposure
  WindExposed,                            !- Wind Exposure
  ,                                       !- View Factor to Ground
  ,                                       !- Number of Vertices
  -26.9347048849634, 58.0557891618865, 2.4384, !- X,Y,Z Vertex 1 {m}
  -26.9347048849634, 46.7895631136661, 8.0715130241102, !- X,Y,Z Vertex 2 {m}
  -14.3386812381136, 46.7895631136661, 8.0715130241102, !- X,Y,Z Vertex 3 {m}
  -14.3386812381136, 58.0557891618865, 2.4384; !- X,Y,Z Vertex 4 {m}

OS:AdditionalProperties,
  {622e649b-994c-457a-97c1-735ee7baf1ed}, !- Handle
  {c88bac24-0026-42be-a83e-06a69dbd52b4}, !- Object Name
  Length,                                 !- Feature Name 1
  Double,                                 !- Feature Data Type 1
  41.325536899113608,                     !- Feature Value 1
  Width,                                  !- Feature Name 2
  Double,                                 !- Feature Data Type 2
  41.325536899113601,                     !- Feature Value 2
  Azimuth,                                !- Feature Name 3
  Integer,                                !- Feature Data Type 3
  0,                                      !- Feature Value 3
  Tilt,                                   !- Feature Name 4
  Double,                                 !- Feature Data Type 4
  0.5,                                    !- Feature Value 4
  SurfaceType,                            !- Feature Name 5
  String,                                 !- Feature Data Type 5
  Roof;                                   !- Feature Value 5

OS:ThermalZone,
  {ec8faded-dff2-4772-930e-00d965dcda08}, !- Handle
  attic - vented,                         !- Name
  1,                                      !- Multiplier
  ,                                       !- Ceiling Height {m}
  356.389957095237,                       !- Volume {m3}
  ,                                       !- Floor Area {m2}
  ,                                       !- Zone Inside Convection Algorithm
  ,                                       !- Zone Outside Convection Algorithm
  ,                                       !- Zone Conditioning Equipment List Name
  {9f638e91-469d-43d7-9f5e-7bd4626304b4}, !- Zone Air Inlet Port List
  {f36fd790-cbf4-4532-9d93-8d7dd9070462}, !- Zone Air Exhaust Port List
  {797b331d-e172-4a3b-ba64-e3f38622a56f}, !- Zone Air Node Name
  {e2e10ae3-9148-418b-a308-bd7ce72c7678}, !- Zone Return Air Port List
  ,                                       !- Primary Daylighting Control Name
  ,                                       !- Fraction of Zone Controlled by Primary Daylighting Control
  ,                                       !- Secondary Daylighting Control Name
  ,                                       !- Fraction of Zone Controlled by Secondary Daylighting Control
  ,                                       !- Illuminance Map Name
  ,                                       !- Group Rendering Name
  ,                                       !- Thermostat Name
  No;                                     !- Use Ideal Air Loads

OS:Node,
  {48cb130f-65de-4fa0-bdac-ca33ff871a1e}, !- Handle
  Node 2,                                 !- Name
  {797b331d-e172-4a3b-ba64-e3f38622a56f}, !- Inlet Port
  ;                                       !- Outlet Port

OS:Connection,
  {797b331d-e172-4a3b-ba64-e3f38622a56f}, !- Handle
  {ec8faded-dff2-4772-930e-00d965dcda08}, !- Source Object
  11,                                     !- Outlet Port
  {48cb130f-65de-4fa0-bdac-ca33ff871a1e}, !- Target Object
  2;                                      !- Inlet Port

OS:PortList,
  {9f638e91-469d-43d7-9f5e-7bd4626304b4}, !- Handle
  {ec8faded-dff2-4772-930e-00d965dcda08}; !- HVAC Component

OS:PortList,
  {f36fd790-cbf4-4532-9d93-8d7dd9070462}, !- Handle
  {ec8faded-dff2-4772-930e-00d965dcda08}; !- HVAC Component

OS:PortList,
  {e2e10ae3-9148-418b-a308-bd7ce72c7678}, !- Handle
  {ec8faded-dff2-4772-930e-00d965dcda08}; !- HVAC Component

OS:Sizing:Zone,
  {01e1636f-4f36-4c20-8b92-1e9338f7cb78}, !- Handle
  {ec8faded-dff2-4772-930e-00d965dcda08}, !- Zone or ZoneList Name
  SupplyAirTemperature,                   !- Zone Cooling Design Supply Air Temperature Input Method
  14,                                     !- Zone Cooling Design Supply Air Temperature {C}
  11.11,                                  !- Zone Cooling Design Supply Air Temperature Difference {deltaC}
  SupplyAirTemperature,                   !- Zone Heating Design Supply Air Temperature Input Method
  40,                                     !- Zone Heating Design Supply Air Temperature {C}
  11.11,                                  !- Zone Heating Design Supply Air Temperature Difference {deltaC}
  0.0085,                                 !- Zone Cooling Design Supply Air Humidity Ratio {kg-H2O/kg-air}
  0.008,                                  !- Zone Heating Design Supply Air Humidity Ratio {kg-H2O/kg-air}
  ,                                       !- Zone Heating Sizing Factor
  ,                                       !- Zone Cooling Sizing Factor
  DesignDay,                              !- Cooling Design Air Flow Method
  ,                                       !- Cooling Design Air Flow Rate {m3/s}
  ,                                       !- Cooling Minimum Air Flow per Zone Floor Area {m3/s-m2}
  ,                                       !- Cooling Minimum Air Flow {m3/s}
  ,                                       !- Cooling Minimum Air Flow Fraction
  DesignDay,                              !- Heating Design Air Flow Method
  ,                                       !- Heating Design Air Flow Rate {m3/s}
  ,                                       !- Heating Maximum Air Flow per Zone Floor Area {m3/s-m2}
  ,                                       !- Heating Maximum Air Flow {m3/s}
  ,                                       !- Heating Maximum Air Flow Fraction
  No,                                     !- Account for Dedicated Outdoor Air System
  NeutralSupplyAir,                       !- Dedicated Outdoor Air System Control Strategy
  autosize,                               !- Dedicated Outdoor Air Low Setpoint Temperature for Design {C}
  autosize,                               !- Dedicated Outdoor Air High Setpoint Temperature for Design {C}
  Sensible Load Only No Latent Load,      !- Zone Load Sizing Method
  HumidityRatioDifference,                !- Zone Latent Cooling Design Supply Air Humidity Ratio Input Method
  ,                                       !- Zone Dehumidification Design Supply Air Humidity Ratio {kgWater/kgDryAir}
  0.005,                                  !- Zone Cooling Design Supply Air Humidity Ratio Difference {kgWater/kgDryAir}
  HumidityRatioDifference,                !- Zone Latent Heating Design Supply Air Humidity Ratio Input Method
  ,                                       !- Zone Humidification Design Supply Air Humidity Ratio {kgWater/kgDryAir}
  0.005,                                  !- Zone Humidification Design Supply Air Humidity Ratio Difference {kgWater/kgDryAir}
  ,                                       !- Zone Humidistat Dehumidification Set Point Schedule Name
  ,                                       !- Zone Humidistat Humidification Set Point Schedule Name
  ,                                       !- Design Zone Air Distribution Effectiveness in Cooling Mode
  ,                                       !- Design Zone Air Distribution Effectiveness in Heating Mode
  ,                                       !- Design Zone Secondary Recirculation Fraction {dimensionless}
  ,                                       !- Design Minimum Zone Ventilation Efficiency {dimensionless}
  Coincident;                             !- Sizing Option

OS:ZoneHVAC:EquipmentList,
  {0953a238-0758-4c2a-b6a0-61d73353321b}, !- Handle
  Zone HVAC Equipment List 2,             !- Name
  {ec8faded-dff2-4772-930e-00d965dcda08}; !- Thermal Zone

OS:AdditionalProperties,
  {58a86e15-e7f7-4d46-b804-775a1009ec9f}, !- Handle
  {ec8faded-dff2-4772-930e-00d965dcda08}, !- Object Name
  ObjectType,                             !- Feature Name 1
  String,                                 !- Feature Data Type 1
  attic - vented;                         !- Feature Value 1

OS:Space,
  {df339eb0-54e0-456f-8bcf-83e88eb5d51c}, !- Handle
  attic - vented 1,                       !- Name
  ,                                       !- Space Type Name
  ,                                       !- Default Construction Set Name
  ,                                       !- Default Schedule Set Name
  ,                                       !- Direction of Relative North {deg}
  ,                                       !- X Origin {m}
  ,                                       !- Y Origin {m}
  ,                                       !- Z Origin {m}
  ,                                       !- Building Story Name
  {ec8faded-dff2-4772-930e-00d965dcda08}, !- Thermal Zone Name
  ,                                       !- Part of Total Floor Area
  ,                                       !- Design Specification Outdoor Air Object Name
  ,                                       !- Building Unit Name
  356.389957095237;                       !- Volume {m3}

OS:Material,
  {1440435c-8a7e-40fc-b644-bbc14ad1ecfa}, !- Handle
  asphalt or fiberglass shingles,         !- Name
  Rough,                                  !- Roughness
  0.00635,                                !- Thickness {m}
  0.162714,                               !- Conductivity {W/m-K}
  1121.4,                                 !- Density {kg/m3}
  1465.45,                                !- Specific Heat {J/kg-K}
  0.9,                                    !- Thermal Absorptance
  0.85,                                   !- Solar Absorptance