
OS:Version,
  {9f4b98ad-4d6a-4301-b2f1-e34051ee3580}, !- Handle
  3.9.0;                                  !- Version Identifier

OS:SimulationControl,
  {d18dd350-1c07-4507-bfa9-f2f7fd9ffa51}, !- Handle
  ,                                       !- Do Zone Sizing Calculation
  ,                                       !- Do System Sizing Calculation
  ,                                       !- Do Plant Sizing Calculation
  No;                                     !- Run Simulation for Sizing Periods

OS:Timestep,
  {f8c3136e-7c1c-4179-a94d-0a92a0da8379}, !- Handle
  1;                                      !- Number of Timesteps per Hour

OS:ShadowCalculation,
  {7e325cd4-37a4-4644-b53a-688ab8e9e9d6}, !- Handle
  PolygonClipping,                        !- Shading Calculation Method
  ,                                       !- Shading Calculation Update Frequency Method
  20,                                     !- Shading Calculation Update Frequency
  200,                                    !- Maximum Figures in Shadow Overlap Calculations
  ,                                       !- Polygon Clipping Algorithm
  512,                                    !- Pixel Counting Resolution
  ,                                       !- Sky Diffuse Modeling Algorithm
  No,                                     !- Output External Shading Calculation Results
  No,                                     !- Disable Self-Shading Within Shading Zone Groups
  No;                                     !- Disable Self-Shading From Shading Zone Groups to Other Zones

OS:SurfaceConvectionAlgorithm:Outside,
  {faa95425-3f4d-4d35-a3a0-e6167ab64518}, !- Handle
  DOE-2;                                  !- Algorithm

OS:SurfaceConvectionAlgorithm:Inside,
  {04a7db95-ca45-421d-ac34-bc702d79f708}, !- Handle
  TARP;                                   !- Algorithm

OS:ZoneCapacitanceMultiplier:ResearchSpecial,
  {713e3d65-04c4-4bc3-a249-5ea45cb99c56}, !- Handle
  7,                                      !- Temperature Capacity Multiplier
  15,                                     !- Humidity Capacity Multiplier
  ;                                       !- Carbon Dioxide Capacity Multiplier

OS:ConvergenceLimits,
  {b29e6aa3-0f61-43ba-af44-550a9b9541e8}, !- Handle
  0;                                      !- Minimum System Timestep {minutes}

OS:RunPeriod,
  {25b0ba15-261d-4795-ae31-43dddb92d66f}, !- Handle
  Run Period 1,                           !- Name
  1,                                      !- Begin Month
  1,                                      !- Begin Day of Month
  12,                                     !- End Month
  31,                                     !- End Day of Month
  ,                                       !- Use Weather File Holidays and Special Days
  ,                                       !- Use Weather File Daylight Saving Period
  ,                                       !- Apply Weekend Holiday Rule
  ,                                       !- Use Weather File Rain Indicators
  ,                                       !- Use Weather File Snow Indicators
  ;                                       !- Number of Times Runperiod to be Repeated

OS:PerformancePrecisionTradeoffs,
  {d2cbd2e9-ade4-40d5-8cf7-39ac32c2fb69}, !- Handle
  ,                                       !- Use Coil Direct Solutions
  CarrollMRT;                             !- Zone Radiant Exchange Algorithm

OS:WeatherFile,
  {36319067-e188-422a-970f-83a2c2734d57}, !- Handle
  Buffalo Niagara Intl Ap,                !- City
  NY,                                     !- State Province Region
  USA,                                    !- Country
  TMY3,                                   !- Data Source
  725280,                                 !- WMO Number
  42.93,                                  !- Latitude {deg}
  -78.73,                                 !- Longitude {deg}
  -5,                                     !- Time Zone {hr}
  215,                                    !- Elevation {m}
  /Users/nmoore/github/urbanopt-example-geojson-project/example_project/weather/USA_NY_Buffalo-Greater.Buffalo.Intl.AP.725280_TMY3.epw, !- Url
  6B50E0FF,                               !- Checksum
  ,                                       !- Start Date Actual Year
  Sunday;                                 !- Start Day of Week

OS:YearDescription,
  {b7aad25a-b4a4-4e87-a15b-a9235f2d6f5c}, !- Handle
  2007,                                   !- Calendar Year
  ,                                       !- Day of Week for Start Day
  ;                                       !- Is Leap Year

OS:Site,
  {fda2a482-084a-44fd-a380-0c8125f3eeae}, !- Handle
  Buffalo Niagara Intl Ap_NY,             !- Name
  42.93,                                  !- Latitude {deg}
  -78.73,                                 !- Longitude {deg}
  -5,                                     !- Time Zone {hr}
  215,                                    !- Elevation {m}
  Suburbs,                                !- Terrain
  Yes;                                    !- Keep Site Location Information

OS:RunPeriodControl:DaylightSavingTime,
  {cd35b001-a867-4f1d-87b7-069ed1e4e0cf}, !- Handle
  Mar 12,                                 !- Start Date
  Nov 5;                                  !- End Date

OS:Site:GroundTemperature:Shallow,
  {0f839e16-d769-4dfc-9b40-e22893e117a0}, !- Handle
  4.30207395723828,                       !- January Surface Ground Temperature {C}
  2.29327249652502,                       !- February Surface Ground Temperature {C}
  2.13240047156047,                       !- March Surface Ground Temperature {C}
  3.08567940719286,                       !- April Surface Ground Temperature {C}
  6.91256312497526,                       !- May Surface Ground Temperature {C}
  10.7216195949507,                       !- June Surface Ground Temperature {C}
  14.0238679822574,                       !- July Surface Ground Temperature {C}
  16.1157611184724,                       !- August Surface Ground Temperature {C}
  16.2934789303462,                       !- September Surface Ground Temperature {C}
  14.5920754632847,                       !- October Surface Ground Temperature {C}
  11.374036348653,                        !- November Surface Ground Temperature {C}
  7.68182621661674;                       !- December Surface Ground Temperature {C}

OS:ThermalZone,
  {5f3dbc82-a653-418b-a17e-cc54cc7f01e7}, !- Handle
  conditioned space,                      !- Name
  1,                                      !- Multiplier
  ,                                       !- Ceiling Height {m}
  692.06373070848,                        !- Volume {m3}
  ,                                       !- Floor Area {m2}
  ,                                       !- Zone Inside Convection Algorithm
  ,                                       !- Zone Outside Convection Algorithm
  ,                                       !- Zone Conditioning Equipment List Name
  {e86dc0ab-5e63-4190-93a2-b798efe11894}, !- Zone Air Inlet Port List
  {3e027f5b-2d55-48c4-906b-24c94dfae2cb}, !- Zone Air Exhaust Port List
  {a6f2f3ba-06c4-41ed-a25a-7749f37035b4}, !- Zone Air Node Name
  {06a24214-6cfc-4814-9f7d-f6a3f6442b81}, !- Zone Return Air Port List
  ,                                       !- Primary Daylighting Control Name
  ,                                       !- Fraction of Zone Controlled by Primary Daylighting Control
  ,                                       !- Secondary Daylighting Control Name
  ,                                       !- Fraction of Zone Controlled by Secondary Daylighting Control
  ,                                       !- Illuminance Map Name
  ,                                       !- Group Rendering Name
  {e0a88185-ebd0-4a17-9d03-58386e3606d2}, !- Thermostat Name
  No;                                     !- Use Ideal Air Loads

OS:Node,
  {dba02144-c00b-4b4a-b0fe-ee8969973ec6}, !- Handle
  Node 1,                                 !- Name
  {a6f2f3ba-06c4-41ed-a25a-7749f37035b4}, !- Inlet Port
  ;                                       !- Outlet Port

OS:Connection,
  {a6f2f3ba-06c4-41ed-a25a-7749f37035b4}, !- Handle
  {5f3dbc82-a653-418b-a17e-cc54cc7f01e7}, !- Source Object
  11,                                     !- Outlet Port
  {dba02144-c00b-4b4a-b0fe-ee8969973ec6}, !- Target Object
  2;                                      !- Inlet Port

OS:PortList,
  {e86dc0ab-5e63-4190-93a2-b798efe11894}, !- Handle
  {5f3dbc82-a653-418b-a17e-cc54cc7f01e7}, !- HVAC Component
  {e4d784d8-37f6-4189-80a5-1ac9fc626bc2}; !- Port 1

OS:PortList,
  {3e027f5b-2d55-48c4-906b-24c94dfae2cb}, !- Handle
  {5f3dbc82-a653-418b-a17e-cc54cc7f01e7}; !- HVAC Component

OS:PortList,
  {06a24214-6cfc-4814-9f7d-f6a3f6442b81}, !- Handle
  {5f3dbc82-a653-418b-a17e-cc54cc7f01e7}, !- HVAC Component
  {ce194352-c50f-4b87-b612-f971dbc54c89}; !- Port 1

OS:Sizing:Zone,
  {ebde5cb3-2218-4c34-9a25-8861421e1760}, !- Handle
  {5f3dbc82-a653-418b-a17e-cc54cc7f01e7}, !- Zone or ZoneList Name
  SupplyAirTemperature,                   !- Zone Cooling Design Supply Air Temperature Input Method
  14,                                     !- Zone Cooling Design Supply Air Temperature {C}
  11.11,                                  !- Zone Cooling Design Supply Air Temperature Difference {deltaC}
  SupplyAirTemperature,                   !- Zone Heating Design Supply Air Temperature Input Method
  40,                                     !- Zone Heating Design Supply Air Temperature {C}
  11.11,                                  !- Zone Heating Design Supply Air Temperature Difference {deltaC}
  0.0085,                                 !- Zone Cooling Design Supply Air Humidity Ratio {kg-H2O/kg-air}
  0.008,                                  !- Zone Heating Design Supply Air Humidity Ratio {kg-H2O/kg-air}
  ,                                       !- Zone Heating Sizing Factor
  ,                                       !- Zone Cooling Sizing Factor
  DesignDay,                              !- Cooling Design Air Flow Method
  ,                                       !- Cooling Design Air Flow Rate {m3/s}
  ,                                       !- Cooling Minimum Air Flow per Zone Floor Area {m3/s-m2}
  ,                                       !- Cooling Minimum Air Flow {m3/s}
  ,                                       !- Cooling Minimum Air Flow Fraction
  DesignDay,                              !- Heating Design Air Flow Method
  ,                                       !- Heating Design Air Flow Rate {m3/s}
  ,                                       !- Heating Maximum Air Flow per Zone Floor Area {m3/s-m2}
  ,                                       !- Heating Maximum Air Flow {m3/s}
  ,                                       !- Heating Maximum Air Flow Fraction
  No,                                     !- Account for Dedicated Outdoor Air System
  NeutralSupplyAir,                       !- Dedicated Outdoor Air System Control Strategy
  autosize,                               !- Dedicated Outdoor Air Low Setpoint Temperature for Design {C}
  autosize,                               !- Dedicated Outdoor Air High Setpoint Temperature for Design {C}
  Sensible Load Only No Latent Load,      !- Zone Load Sizing Method
  HumidityRatioDifference,                !- Zone Latent Cooling Design Supply Air Humidity Ratio Input Method
  ,                                       !- Zone Dehumidification Design Supply Air Humidity Ratio {kgWater/kgDryAir}
  0.005,                                  !- Zone Cooling Design Supply Air Humidity Ratio Difference {kgWater/kgDryAir}
  HumidityRatioDifference,                !- Zone Latent Heating Design Supply Air Humidity Ratio Input Method
  ,                                       !- Zone Humidification Design Supply Air Humidity Ratio {kgWater/kgDryAir}
  0.005,                                  !- Zone Humidification Design Supply Air Humidity Ratio Difference {kgWater/kgDryAir}
  ,                                       !- Zone Humidistat Dehumidification Set Point Schedule Name
  ,                                       !- Zone Humidistat Humidification Set Point Schedule Name
  ,                                       !- Design Zone Air Distribution Effectiveness in Cooling Mode
  ,                                       !- Design Zone Air Distribution Effectiveness in Heating Mode
  ,                                       !- Design Zone Secondary Recirculation Fraction {dimensionless}
  ,                                       !- Design Minimum Zone Ventilation Efficiency {dimensionless}
  Coincident;                             !- Sizing Option

OS:ZoneHVAC:EquipmentList,
  {c99e2da9-3f87-461a-a305-7918890c8d69}, !- Handle
  Zone HVAC Equipment List 1,             !- Name
  {5f3dbc82-a653-418b-a17e-cc54cc7f01e7}, !- Thermal Zone
  ,                                       !- Load Distribution Scheme
  {a8f8b2b1-640a-4956-8035-c55735f5c926}, !- Zone Equipment 1
  1,                                      !- Zone Equipment Cooling Sequence 1
  1,                                      !- Zone Equipment Heating or No-Load Sequence 1
  {313a657a-0efb-420c-a194-3af827c6fca4}, !- Zone Equipment Sequential Cooling Fraction Schedule Name 1
  {bfa1b222-9c2b-4643-a40b-08181c874834}, !- Zone Equipment Sequential Heating Fraction Schedule Name 1
  {8de40464-17a8-4032-b595-924f48c6150c}, !- Zone Equipment 2
  2,                                      !- Zone Equipment Cooling Sequence 2
  2,                                      !- Zone Equipment Heating or No-Load Sequence 2
  {fee29c2f-5912-4425-999c-add6ba08f266}, !- Zone Equipment Sequential Cooling Fraction Schedule Name 2
  {4efbbc00-12fd-4045-9983-130bc6478c43}; !- Zone Equipment Sequential Heating Fraction Schedule Name 2

OS:AdditionalProperties,
  {6525a3fa-b45e-4a8f-bcbc-0b47ec0b06cb}, !- Handle
  {5f3dbc82-a653-418b-a17e-cc54cc7f01e7}, !- Object Name
  ObjectType,                             !- Feature Name 1
  String,                                 !- Feature Data Type 1
  conditioned space;                      !- Feature Value 1

OS:Space,
  {ed931185-5c84-4f01-ae37-1556a61c7b32}, !- Handle
  conditioned space 1,                    !- Name
  ,                                       !- Space Type Name
  ,                                       !- Default Construction Set Name
  ,                                       !- Default Schedule Set Name
  ,                                       !- Direction of Relative North {deg}
  ,                                       !- X Origin {m}
  ,                                       !- Y Origin {m}
  ,                                       !- Z Origin {m}
  ,                                       !- Building Story Name
  {5f3dbc82-a653-418b-a17e-cc54cc7f01e7}, !- Thermal Zone Name
  ,                                       !- Part of Total Floor Area
  ,                                       !- Design Specification Outdoor Air Object Name
  ,                                       !- Building Unit Name
  692.06373070848;                        !- Volume {m3}

OS:Schedule:Ruleset,
  {f57297d3-d02e-419e-90a5-06c1df08b3ee}, !- Handle
  heating setpoint,                       !- Name
  {16a703cb-8bbd-493b-9a29-c7a04071a9cb}, !- Schedule Type Limits Name
  {73423a0d-cb01-4858-b267-cb06fee4241e}; !- Default Day Schedule Name

OS:Schedule:Day,
  {73423a0d-cb01-4858-b267-cb06fee4241e}, !- Handle
  heating setpoint default day,           !- Name
  {16a703cb-8bbd-493b-9a29-c7a04071a9cb}, !- Schedule Type Limits Name
  ,                                       !- Interpolate to Timestep
  24,                                     !- Hour 1
  0,                                      !- Minute 1
  0;                                      !- Value Until Time 1

OS:Schedule:Rule,
  {91d163b2-54aa-4b77-b259-6f737972f55f}, !- Handle
  heating setpoint allday rule,           !- Name
  {f57297d3-d02e-419e-90a5-06c1df08b3ee}, !- Schedule Ruleset Name
  0,                                      !- Rule Order
  {d4a2aa05-d77d-4465-8382-81269f0d67ae}, !- Day Schedule Name
  Yes,                                    !- Apply Sunday
  Yes,                                    !- Apply Monday
  Yes,                                    !- Apply Tuesday
  Yes,                                    !- Apply Wednesday
  Yes,                                    !- Apply Thursday
  Yes,                                    !- Apply Friday
  Yes,                                    !- Apply Saturday
  DateRange,                              !- Date Specification Type
  1,                                      !- Start Month
  1,                                      !- Start Day
  12,                                     !- End Month
  31;                                     !- End Day

OS:Schedule:Day,
  {d4a2aa05-d77d-4465-8382-81269f0d67ae}, !- Handle
  heating setpoint day,                   !- Name
  {16a703cb-8bbd-493b-9a29-c7a04071a9cb}, !- Schedule Type Limits Name
  ,                                       !- Interpolate to Timestep
  24,                                     !- Hour 1
  0,                                      !- Minute 1
  20;                                     !- Value Until Time 1

OS:Schedule:Ruleset,
  {163ae8de-ddbf-4811-a7ed-01cc2fc214e0}, !- Handle
  cooling setpoint,                       !- Name
  {16a703cb-8bbd-493b-9a29-c7a04071a9cb}, !- Schedule Type Limits Name
  {545065a7-a947-4541-a32c-328faded9a5c}; !- Default Day Schedule Name

OS:Schedule:Day,
  {545065a7-a947-4541-a32c-328faded9a5c}, !- Handle
  cooling setpoint default day,           !- Name
  {16a703cb-8bbd-493b-9a29-c7a04071a9cb}, !- Schedule Type Limits Name
  ,                                       !- Interpolate to Timestep
  24,                                     !- Hour 1
  0,                                      !- Minute 1
  0;                                      !- Value Until Time 1

OS:Schedule:Rule,
  {09bc0924-6f38-41ed-bbeb-5315f0847329}, !- Handle
  cooling setpoint allday rule,           !- Name
  {163ae8de-ddbf-4811-a7ed-01cc2fc214e0}, !- Schedule Ruleset Name
  0,                                      !- Rule Order
  {ba649208-3df0-4ea7-b877-560c86a5a814}, !- Day Schedule Name
  Yes,                                    !- Apply Sunday
  Yes,                                    !- Apply Monday
  Yes,                                    !- Apply Tuesday
  Yes,                                    !- Apply Wednesday
  Yes,                                    !- Apply Thursday
  Yes,                                    !- Apply Friday
  Yes,                                    !- Apply Saturday
  DateRange,                              !- Date Specification Type
  1,                                      !- Start Month
  1,                                      !- Start Day
  12,                                     !- End Month
  31;                                     !- End Day

OS:Schedule:Day,
  {ba649208-3df0-4ea7-b877-560c86a5a814}, !- Handle
  cooling setpoint day,                   !- Name
  {16a703cb-8bbd-493b-9a29-c7a04071a9cb}, !- Schedule Type Limits Name
  ,                                       !- Interpolate to Timestep
  24,                                     !- Hour 1
  0,                                      !- Minute 1
  25.5555555555556;                       !- Value Until Time 1

OS:ThermostatSetpoint:DualSetpoint,
  {e0a88185-ebd0-4a17-9d03-58386e3606d2}, !- Handle
  conditioned space temperature setpoint, !- Name
  {f57297d3-d02e-419e-90a5-06c1df08b3ee}, !- Heating Setpoint Temperature Schedule Name
  {163ae8de-ddbf-4811-a7ed-01cc2fc214e0}, !- Cooling Setpoint Temperature Schedule Name
  0;                                      !- Temperature Difference Between Cutout And Setpoint {deltaC}

OS:ScheduleTypeLimits,
  {16a703cb-8bbd-493b-9a29-c7a04071a9cb}, !- Handle
  Temperature,                            !- Name
  ,                                       !- Lower Limit Value
  ,                                       !- Upper Limit Value
  Continuous,                             !- Numeric Type
  Temperature;                            !- Unit Type

OS:Surface,
  {8db14cfd-8e72-436f-a1dc-e49c00ba76f8}, !- Handle
  Roof1,                                  !- Name
  RoofCeiling,                            !- Surface Type
  {38a12e05-1506-499a-8b4a-882be84a906b}, !- Construction Name
  {482b0ce8-057c-4157-86dd-1e1ee04f0602}, !- Space Name
  Outdoors,                               !- Outside Boundary Condition
  ,                                       !- Outside Boundary Condition Object
  SunExposed,                             !- Sun Exposure
  WindExposed,                            !- Wind Exposure
  ,                                       !- View Factor to Ground
  ,                                       !- Number of Vertices
  -26.9347048849634, 58.0557891618865, 2.4384, !- X,Y,Z Vertex 1 {m}
  -26.9347048849634, 46.7895631136661, 8.0715130241102, !- X,Y,Z Vertex 2 {m}
  -14.3386812381136, 46.7895631136661, 8.0715130241102, !- X,Y,Z Vertex 3 {m}
  -14.3386812381136, 58.0557891618865, 2.4384; !- X,Y,Z Vertex 4 {m}

OS:AdditionalProperties,
  {0d845c44-a2e7-4bf5-9f69-5b77cede99b8}, !- Handle
  {8db14cfd-8e72-436f-a1dc-e49c00ba76f8}, !- Object Name
  Length,                                 !- Feature Name 1
  Double,                                 !- Feature Data Type 1
  41.325536899113608,                     !- Feature Value 1
  Width,                                  !- Feature Name 2
  Double,                                 !- Feature Data Type 2
  41.325536899113601,                     !- Feature Value 2
  Azimuth,                                !- Feature Name 3
  Integer,                                !- Feature Data Type 3
  0,                                      !- Feature Value 3
  Tilt,                                   !- Feature Name 4
  Double,                                 !- Feature Data Type 4
  0.5,                                    !- Feature Value 4
  SurfaceType,                            !- Feature Name 5
  String,                                 !- Feature Data Type 5
  Roof;                                   !- Feature Value 5

OS:ThermalZone,
  {53f4836a-5123-4ae0-87eb-2ff6ab4bf62b}, !- Handle
  attic - vented,                         !- Name
  1,                                      !- Multiplier
  ,                                       !- Ceiling Height {m}
  356.389957095237,                       !- Volume {m3}
  ,                                       !- Floor Area {m2}
  ,                                       !- Zone Inside Convection Algorithm
  ,                                       !- Zone Outside Convection Algorithm
  ,                                       !- Zone Conditioning Equipment List Name
  {d695dcd1-1918-436c-af99-490b8ca1d1c3}, !- Zone Air Inlet Port List
  {4cbe42ec-ab84-40b2-a096-5622007e64ff}, !- Zone Air Exhaust Port List
  {a32b6681-e3ee-47de-bcd6-dc92191090c1}, !- Zone Air Node Name
  {fe2574d7-ee0e-453a-9ebf-00dbaf8d7073}, !- Zone Return Air Port List
  ,                                       !- Primary Daylighting Control Name
  ,                                       !- Fraction of Zone Controlled by Primary Daylighting Control
  ,                                       !- Secondary Daylighting Control Name
  ,                                       !- Fraction of Zone Controlled by Secondary Daylighting Control
  ,                                       !- Illuminance Map Name
  ,                                       !- Group Rendering Name
  ,                                       !- Thermostat Name
  No;                                     !- Use Ideal Air Loads

OS:Node,
  {43e0e31c-31bd-4a54-95c2-e26bfa6106d3}, !- Handle
  Node 2,                                 !- Name
  {a32b6681-e3ee-47de-bcd6-dc92191090c1}, !- Inlet Port
  ;                                       !- Outlet Port

OS:Connection,
  {a32b6681-e3ee-47de-bcd6-dc92191090c1}, !- Handle
  {53f4836a-5123-4ae0-87eb-2ff6ab4bf62b}, !- Source Object
  11,                                     !- Outlet Port
  {43e0e31c-31bd-4a54-95c2-e26bfa6106d3}, !- Target Object
  2;                                      !- Inlet Port

OS:PortList,
  {d695dcd1-1918-436c-af99-490b8ca1d1c3}, !- Handle
  {53f4836a-5123-4ae0-87eb-2ff6ab4bf62b}; !- HVAC Component

OS:PortList,
  {4cbe42ec-ab84-40b2-a096-5622007e64ff}, !- Handle
  {53f4836a-5123-4ae0-87eb-2ff6ab4bf62b}; !- HVAC Component

OS:PortList,
  {fe2574d7-ee0e-453a-9ebf-00dbaf8d7073}, !- Handle
  {53f4836a-5123-4ae0-87eb-2ff6ab4bf62b}; !- HVAC Component

OS:Sizing:Zone,
  {0fe3ec77-f952-4309-9c4f-4395fff7fa76}, !- Handle
  {53f4836a-5123-4ae0-87eb-2ff6ab4bf62b}, !- Zone or ZoneList Name
  SupplyAirTemperature,                   !- Zone Cooling Design Supply Air Temperature Input Method
  14,                                     !- Zone Cooling Design Supply Air Temperature {C}
  11.11,                                  !- Zone Cooling Design Supply Air Temperature Difference {deltaC}
  SupplyAirTemperature,                   !- Zone Heating Design Supply Air Temperature Input Method
  40,                                     !- Zone Heating Design Supply Air Temperature {C}
  11.11,                                  !- Zone Heating Design Supply Air Temperature Difference {deltaC}
  0.0085,                                 !- Zone Cooling Design Supply Air Humidity Ratio {kg-H2O/kg-air}
  0.008,                                  !- Zone Heating Design Supply Air Humidity Ratio {kg-H2O/kg-air}
  ,                                       !- Zone Heating Sizing Factor
  ,                                       !- Zone Cooling Sizing Factor
  DesignDay,                              !- Cooling Design Air Flow Method
  ,                                       !- Cooling Design Air Flow Rate {m3/s}
  ,                                       !- Cooling Minimum Air Flow per Zone Floor Area {m3/s-m2}
  ,                                       !- Cooling Minimum Air Flow {m3/s}
  ,                                       !- Cooling Minimum Air Flow Fraction
  DesignDay,                              !- Heating Design Air Flow Method
  ,                                       !- Heating Design Air Flow Rate {m3/s}
  ,                                       !- Heating Maximum Air Flow per Zone Floor Area {m3/s-m2}
  ,                                       !- Heating Maximum Air Flow {m3/s}
  ,                                       !- Heating Maximum Air Flow Fraction
  No,                                     !- Account for Dedicated Outdoor Air System
  NeutralSupplyAir,                       !- Dedicated Outdoor Air System Control Strategy
  autosize,                               !- Dedicated Outdoor Air Low Setpoint Temperature for Design {C}
  autosize,                               !- Dedicated Outdoor Air High Setpoint Temperature for Design {C}
  Sensible Load Only No Latent Load,      !- Zone Load Sizing Method
  HumidityRatioDifference,                !- Zone Latent Cooling Design Supply Air Humidity Ratio Input Method
  ,                                       !- Zone Dehumidification Design Supply Air Humidity Ratio {kgWater/kgDryAir}
  0.005,                                  !- Zone Cooling Design Supply Air Humidity Ratio Difference {kgWater/kgDryAir}
  HumidityRatioDifference,                !- Zone Latent Heating Design Supply Air Humidity Ratio Input Method
  ,                                       !- Zone Humidification Design Supply Air Humidity Ratio {kgWater/kgDryAir}
  0.005,                                  !- Zone Humidification Design Supply Air Humidity Ratio Difference {kgWater/kgDryAir}
  ,                                       !- Zone Humidistat Dehumidification Set Point Schedule Name
  ,                                       !- Zone Humidistat Humidification Set Point Schedule Name
  ,                                       !- Design Zone Air Distribution Effectiveness in Cooling Mode
  ,                                       !- Design Zone Air Distribution Effectiveness in Heating Mode
  ,                                       !- Design Zone Secondary Recirculation Fraction {dimensionless}
  ,                                       !- Design Minimum Zone Ventilation Efficiency {dimensionless}
  Coincident;                             !- Sizing Option

OS:ZoneHVAC:EquipmentList,
  {fc21224d-c234-4d06-891c-a7b62a83c766}, !- Handle
  Zone HVAC Equipment List 2,             !- Name
  {53f4836a-5123-4ae0-87eb-2ff6ab4bf62b}; !- Thermal Zone

OS:AdditionalProperties,
  {41aaf1ad-64eb-4b28-bce5-4160940260f6}, !- Handle
  {53f4836a-5123-4ae0-87eb-2ff6ab4bf62b}, !- Object Name
  ObjectType,                             !- Feature Name 1
  String,                                 !- Feature Data Type 1
  attic - vented;                         !- Feature Value 1

OS:Space,
  {482b0ce8-057c-4157-86dd-1e1ee04f0602}, !- Handle
  attic - vented 1,                       !- Name
  ,                                       !- Space Type Name
  ,                                       !- Default Construction Set Name
  ,                                       !- Default Schedule Set Name
  ,                                       !- Direction of Relative North {deg}
  ,                                       !- X Origin {m}
  ,                                       !- Y Origin {m}
  ,                                       !- Z Origin {m}
  ,                                       !- Building Story Name
  {53f4836a-5123-4ae0-87eb-2ff6ab4bf62b}, !- Thermal Zone Name
  ,                                       !- Part of Total Floor Area
  ,                                       !- Design Specification Outdoor Air Object Name
  ,                                       !- Building Unit Name
  356.389957095237;                       !- Volume {m3}

OS:Material,
  {4683f789-c27e-4af8-81a4-32a73b027878}, !- Handle
  asphalt or fiberglass shingles,         !- Name