
OS:Version,
  {c1c0fa41-de27-4b76-9505-7e448969a257}, !- Handle
  3.10.0;                                 !- Version Identifier

OS:SimulationControl,
  {1c3c32cb-f6ad-4304-8327-872be75085f7}, !- Handle
  ,                                       !- Do Zone Sizing Calculation
  ,                                       !- Do System Sizing Calculation
  ,                                       !- Do Plant Sizing Calculation
  No;                                     !- Run Simulation for Sizing Periods

OS:Timestep,
  {e92af58f-8a0c-4c82-baae-e339145a55ea}, !- Handle
  1;                                      !- Number of Timesteps per Hour

OS:ShadowCalculation,
  {8c3e9c10-f5b6-4e8f-9071-3bdad800484f}, !- Handle
  PolygonClipping,                        !- Shading Calculation Method
  ,                                       !- Shading Calculation Update Frequency Method
  20,                                     !- Shading Calculation Update Frequency
  200,                                    !- Maximum Figures in Shadow Overlap Calculations
  ,                                       !- Polygon Clipping Algorithm
  512,                                    !- Pixel Counting Resolution
  ,                                       !- Sky Diffuse Modeling Algorithm
  No,                                     !- Output External Shading Calculation Results
  No,                                     !- Disable Self-Shading Within Shading Zone Groups
  No;                                     !- Disable Self-Shading From Shading Zone Groups to Other Zones

OS:SurfaceConvectionAlgorithm:Outside,
  {3e44260a-009c-46a1-bdef-ba52154f50ec}, !- Handle
  DOE-2;                                  !- Algorithm

OS:SurfaceConvectionAlgorithm:Inside,
  {5ee3574d-bc59-4031-90b4-4874c2b3bfbd}, !- Handle
  TARP;                                   !- Algorithm

OS:ZoneCapacitanceMultiplier:ResearchSpecial,
  {684828b8-3b07-4556-aeb2-664071611ef6}, !- Handle
  7,                                      !- Temperature Capacity Multiplier
  15,                                     !- Humidity Capacity Multiplier
  ;                                       !- Carbon Dioxide Capacity Multiplier

OS:ConvergenceLimits,
  {d0d652fa-7447-4ecc-93cd-29f35279f890}, !- Handle
  0;                                      !- Minimum System Timestep {minutes}

OS:RunPeriod,
  {34fbd9e3-d6b8-46ee-b51f-38b049202eaf}, !- Handle
  Run Period 1,                           !- Name
  1,                                      !- Begin Month
  1,                                      !- Begin Day of Month
  12,                                     !- End Month
  31,                                     !- End Day of Month
  ,                                       !- Use Weather File Holidays and Special Days
  ,                                       !- Use Weather File Daylight Saving Period
  ,                                       !- Apply Weekend Holiday Rule
  ,                                       !- Use Weather File Rain Indicators
  ,                                       !- Use Weather File Snow Indicators
  ;                                       !- Number of Times Runperiod to be Repeated

OS:PerformancePrecisionTradeoffs,
  {6b3054c4-6dbc-4171-8f80-c3b3919e89ff}, !- Handle
  ,                                       !- Use Coil Direct Solutions
  CarrollMRT;                             !- Zone Radiant Exchange Algorithm

OS:WeatherFile,
  {d8220623-1f36-4e38-9bc9-b251ea9aae3d}, !- Handle
  Buffalo Niagara Intl Ap,                !- City
  NY,                                     !- State Province Region
  USA,                                    !- Country
  TMY3,                                   !- Data Source
  725280,                                 !- WMO Number
  42.93,                                  !- Latitude {deg}
  -78.73,                                 !- Longitude {deg}
  -5,                                     !- Time Zone {hr}
  215,                                    !- Elevation {m}
  /Users/nmoore/github/urbanopt-example-geojson-project/example_project/weather/USA_NY_Buffalo-Greater.Buffalo.Intl.AP.725280_TMY3.epw, !- Url
  6B50E0FF,                               !- Checksum
  ,                                       !- Start Date Actual Year
  Sunday;                                 !- Start Day of Week

OS:YearDescription,
  {e66ed282-5c72-4dd1-a18a-70218edd06a2}, !- Handle
  2007,                                   !- Calendar Year
  ,                                       !- Day of Week for Start Day
  ;                                       !- Is Leap Year

OS:Site,
  {a3cadf2c-fcb7-4c88-8843-4e9b65331cfe}, !- Handle
  Buffalo Niagara Intl Ap_NY,             !- Name
  42.93,                                  !- Latitude {deg}
  -78.73,                                 !- Longitude {deg}
  -5,                                     !- Time Zone {hr}
  215,                                    !- Elevation {m}
  Suburbs,                                !- Terrain
  Yes;                                    !- Keep Site Location Information

OS:RunPeriodControl:DaylightSavingTime,
  {3cef6443-64f7-4db2-ac2b-de7c37ab4a56}, !- Handle
  Mar 12,                                 !- Start Date
  Nov 5;                                  !- End Date

OS:Site:GroundTemperature:Shallow,
  {6f8f5781-b39f-4a44-9fdc-0dc17d443423}, !- Handle
  4.30207395723828,                       !- January Surface Ground Temperature {C}
  2.29327249652502,                       !- February Surface Ground Temperature {C}
  2.13240047156047,                       !- March Surface Ground Temperature {C}
  3.08567940719286,                       !- April Surface Ground Temperature {C}
  6.91256312497526,                       !- May Surface Ground Temperature {C}
  10.7216195949507,                       !- June Surface Ground Temperature {C}
  14.0238679822574,                       !- July Surface Ground Temperature {C}
  16.1157611184724,                       !- August Surface Ground Temperature {C}
  16.2934789303462,                       !- September Surface Ground Temperature {C}
  14.5920754632847,                       !- October Surface Ground Temperature {C}
  11.374036348653,                        !- November Surface Ground Temperature {C}
  7.68182621661674;                       !- December Surface Ground Temperature {C}

OS:ThermalZone,
  {6a46337d-2841-42a9-829f-a298dfcfddce}, !- Handle
  conditioned space,                      !- Name
  1,                                      !- Multiplier
  ,                                       !- Ceiling Height {m}
  692.06373070848,                        !- Volume {m3}
  ,                                       !- Floor Area {m2}
  ,                                       !- Zone Inside Convection Algorithm
  ,                                       !- Zone Outside Convection Algorithm
  ,                                       !- Zone Conditioning Equipment List Name
  {7e940812-febf-4eed-9325-57185c0704d3}, !- Zone Air Inlet Port List
  {eae3ae29-78ff-4987-a13d-61367edec4e5}, !- Zone Air Exhaust Port List
  {4b14b517-2d19-4fa0-8f6f-05f4037b84ad}, !- Zone Air Node Name
  {dd1117a4-e6f7-42ef-a61b-0d149345c3bf}, !- Zone Return Air Port List
  ,                                       !- Primary Daylighting Control Name
  ,                                       !- Fraction of Zone Controlled by Primary Daylighting Control
  ,                                       !- Secondary Daylighting Control Name
  ,                                       !- Fraction of Zone Controlled by Secondary Daylighting Control
  ,                                       !- Illuminance Map Name
  ,                                       !- Group Rendering Name
  {282a5e54-2b59-4da3-9118-4c50c731bb22}, !- Thermostat Name
  No;                                     !- Use Ideal Air Loads

OS:Node,
  {88cdb425-6c77-4b2f-bdc7-8fd737f80a75}, !- Handle
  Node 1,                                 !- Name
  {4b14b517-2d19-4fa0-8f6f-05f4037b84ad}, !- Inlet Port
  ;                                       !- Outlet Port

OS:Connection,
  {4b14b517-2d19-4fa0-8f6f-05f4037b84ad}, !- Handle
  {6a46337d-2841-42a9-829f-a298dfcfddce}, !- Source Object
  11,                                     !- Outlet Port
  {88cdb425-6c77-4b2f-bdc7-8fd737f80a75}, !- Target Object
  2;                                      !- Inlet Port

OS:PortList,
  {7e940812-febf-4eed-9325-57185c0704d3}, !- Handle
  {6a46337d-2841-42a9-829f-a298dfcfddce}, !- HVAC Component
  {da6e3d62-8d5f-4b20-a1a0-6edd093bff52}; !- Port 1

OS:PortList,
  {eae3ae29-78ff-4987-a13d-61367edec4e5}, !- Handle
  {6a46337d-2841-42a9-829f-a298dfcfddce}; !- HVAC Component

OS:PortList,
  {dd1117a4-e6f7-42ef-a61b-0d149345c3bf}, !- Handle
  {6a46337d-2841-42a9-829f-a298dfcfddce}, !- HVAC Component
  {c51d35dc-0b4c-4878-9d88-1ddb6a862744}; !- Port 1

OS:Sizing:Zone,
  {5cb165d1-639b-479d-a162-3d63285ce97b}, !- Handle
  {6a46337d-2841-42a9-829f-a298dfcfddce}, !- Zone or ZoneList Name
  SupplyAirTemperature,                   !- Zone Cooling Design Supply Air Temperature Input Method
  14,                                     !- Zone Cooling Design Supply Air Temperature {C}
  11.11,                                  !- Zone Cooling Design Supply Air Temperature Difference {deltaC}
  SupplyAirTemperature,                   !- Zone Heating Design Supply Air Temperature Input Method
  40,                                     !- Zone Heating Design Supply Air Temperature {C}
  11.11,                                  !- Zone Heating Design Supply Air Temperature Difference {deltaC}
  0.0085,                                 !- Zone Cooling Design Supply Air Humidity Ratio {kg-H2O/kg-air}
  0.008,                                  !- Zone Heating Design Supply Air Humidity Ratio {kg-H2O/kg-air}
  ,                                       !- Zone Heating Sizing Factor
  ,                                       !- Zone Cooling Sizing Factor
  DesignDay,                              !- Cooling Design Air Flow Method
  ,                                       !- Cooling Design Air Flow Rate {m3/s}
  ,                                       !- Cooling Minimum Air Flow per Zone Floor Area {m3/s-m2}
  ,                                       !- Cooling Minimum Air Flow {m3/s}
  ,                                       !- Cooling Minimum Air Flow Fraction
  DesignDay,                              !- Heating Design Air Flow Method
  ,                                       !- Heating Design Air Flow Rate {m3/s}
  ,                                       !- Heating Maximum Air Flow per Zone Floor Area {m3/s-m2}
  ,                                       !- Heating Maximum Air Flow {m3/s}
  ,                                       !- Heating Maximum Air Flow Fraction
  No,                                     !- Account for Dedicated Outdoor Air System
  NeutralSupplyAir,                       !- Dedicated Outdoor Air System Control Strategy
  autosize,                               !- Dedicated Outdoor Air Low Setpoint Temperature for Design {C}
  autosize,                               !- Dedicated Outdoor Air High Setpoint Temperature for Design {C}
  Sensible Load Only No Latent Load,      !- Zone Load Sizing Method
  HumidityRatioDifference,                !- Zone Latent Cooling Design Supply Air Humidity Ratio Input Method
  ,                                       !- Zone Dehumidification Design Supply Air Humidity Ratio {kgWater/kgDryAir}
  0.005,                                  !- Zone Cooling Design Supply Air Humidity Ratio Difference {kgWater/kgDryAir}
  HumidityRatioDifference,                !- Zone Latent Heating Design Supply Air Humidity Ratio Input Method
  ,                                       !- Zone Humidification Design Supply Air Humidity Ratio {kgWater/kgDryAir}
  0.005,                                  !- Zone Humidification Design Supply Air Humidity Ratio Difference {kgWater/kgDryAir}
  ,                                       !- Zone Humidistat Dehumidification Set Point Schedule Name
  ,                                       !- Zone Humidistat Humidification Set Point Schedule Name
  ,                                       !- Design Zone Air Distribution Effectiveness in Cooling Mode
  ,                                       !- Design Zone Air Distribution Effectiveness in Heating Mode
  ,                                       !- Design Zone Secondary Recirculation Fraction {dimensionless}
  ,                                       !- Design Minimum Zone Ventilation Efficiency {dimensionless}
  Coincident;                             !- Sizing Option

OS:ZoneHVAC:EquipmentList,
  {097c44a5-1c9b-4859-8b68-530f9cdfabec}, !- Handle
  Zone HVAC Equipment List 1,             !- Name
  {6a46337d-2841-42a9-829f-a298dfcfddce}, !- Thermal Zone
  ,                                       !- Load Distribution Scheme
  {a26c6f2d-96a6-4476-aed2-1af0bac23e9e}, !- Zone Equipment 1
  1,                                      !- Zone Equipment Cooling Sequence 1
  1,                                      !- Zone Equipment Heating or No-Load Sequence 1
  {f4217bb0-dee0-46e2-9f00-b5768f26d258}, !- Zone Equipment Sequential Cooling Fraction Schedule Name 1
  {1ed66e4f-6ce8-4809-bcdd-de6da91b2cd0}, !- Zone Equipment Sequential Heating Fraction Schedule Name 1
  {e658e498-e936-44eb-ac0c-3adeabe861b3}, !- Zone Equipment 2
  2,                                      !- Zone Equipment Cooling Sequence 2
  2,                                      !- Zone Equipment Heating or No-Load Sequence 2
  {53980116-15d3-4256-8206-8ef5d9db7779}, !- Zone Equipment Sequential Cooling Fraction Schedule Name 2
  {3e288ab7-a519-4cfa-9c49-7cd7256892a6}; !- Zone Equipment Sequential Heating Fraction Schedule Name 2

OS:AdditionalProperties,
  {66ccda27-4a2b-4c13-bdf3-f7e33eb27d38}, !- Handle
  {6a46337d-2841-42a9-829f-a298dfcfddce}, !- Object Name
  ObjectType,                             !- Feature Name 1
  String,                                 !- Feature Data Type 1
  conditioned space;                      !- Feature Value 1

OS:Space,
  {d6e28005-6d5c-46e7-8716-50c5e4393639}, !- Handle
  conditioned space 1,                    !- Name
  ,                                       !- Space Type Name
  ,                                       !- Default Construction Set Name
  ,                                       !- Default Schedule Set Name
  ,                                       !- Direction of Relative North {deg}
  ,                                       !- X Origin {m}
  ,                                       !- Y Origin {m}
  ,                                       !- Z Origin {m}
  ,                                       !- Building Story Name
  {6a46337d-2841-42a9-829f-a298dfcfddce}, !- Thermal Zone Name
  ,                                       !- Part of Total Floor Area
  ,                                       !- Design Specification Outdoor Air Object Name
  ,                                       !- Building Unit Name
  692.06373070848;                        !- Volume {m3}

OS:Schedule:Ruleset,
  {b85c5fb2-5085-4ed8-826d-fc1b709a684f}, !- Handle
  heating setpoint,                       !- Name
  {795349e8-a7ec-481c-a6bb-f07807564340}, !- Schedule Type Limits Name
  {e9aa03e9-b186-4d79-8261-7a3ada7db939}; !- Default Day Schedule Name

OS:Schedule:Day,
  {e9aa03e9-b186-4d79-8261-7a3ada7db939}, !- Handle
  heating setpoint default day,           !- Name
  {795349e8-a7ec-481c-a6bb-f07807564340}, !- Schedule Type Limits Name
  ,                                       !- Interpolate to Timestep
  24,                                     !- Hour 1
  0,                                      !- Minute 1
  0;                                      !- Value Until Time 1

OS:Schedule:Rule,
  {f3c5e1fd-d8d7-4fb6-9460-b7653240f4fb}, !- Handle
  heating setpoint allday rule,           !- Name
  {b85c5fb2-5085-4ed8-826d-fc1b709a684f}, !- Schedule Ruleset Name
  0,                                      !- Rule Order
  {451cb780-0955-4989-a821-dba097c58475}, !- Day Schedule Name
  Yes,                                    !- Apply Sunday
  Yes,                                    !- Apply Monday
  Yes,                                    !- Apply Tuesday
  Yes,                                    !- Apply Wednesday
  Yes,                                    !- Apply Thursday
  Yes,                                    !- Apply Friday
  Yes,                                    !- Apply Saturday
  DateRange,                              !- Date Specification Type
  1,                                      !- Start Month
  1,                                      !- Start Day
  12,                                     !- End Month
  31;                                     !- End Day

OS:Schedule:Day,
  {451cb780-0955-4989-a821-dba097c58475}, !- Handle
  heating setpoint day,                   !- Name
  {795349e8-a7ec-481c-a6bb-f07807564340}, !- Schedule Type Limits Name
  ,                                       !- Interpolate to Timestep
  24,                                     !- Hour 1
  0,                                      !- Minute 1
  20;                                     !- Value Until Time 1

OS:Schedule:Ruleset,
  {e7c9e85e-2bde-40cf-bce0-9dae481da07d}, !- Handle
  cooling setpoint,                       !- Name
  {795349e8-a7ec-481c-a6bb-f07807564340}, !- Schedule Type Limits Name
  {8d475133-190a-4738-9d1f-12db4148a644}; !- Default Day Schedule Name

OS:Schedule:Day,
  {8d475133-190a-4738-9d1f-12db4148a644}, !- Handle
  cooling setpoint default day,           !- Name
  {795349e8-a7ec-481c-a6bb-f07807564340}, !- Schedule Type Limits Name
  ,                                       !- Interpolate to Timestep
  24,                                     !- Hour 1
  0,                                      !- Minute 1
  0;                                      !- Value Until Time 1

OS:Schedule:Rule,
  {c8f49d84-9f9e-4312-bef3-c39bf6172f79}, !- Handle
  cooling setpoint allday rule,           !- Name
  {e7c9e85e-2bde-40cf-bce0-9dae481da07d}, !- Schedule Ruleset Name
  0,                                      !- Rule Order
  {567641a6-e639-4ca9-a1e9-f0bf1f7e1828}, !- Day Schedule Name
  Yes,                                    !- Apply Sunday
  Yes,                                    !- Apply Monday
  Yes,                                    !- Apply Tuesday
  Yes,                                    !- Apply Wednesday
  Yes,                                    !- Apply Thursday
  Yes,                                    !- Apply Friday
  Yes,                                    !- Apply Saturday
  DateRange,                              !- Date Specification Type
  1,                                      !- Start Month
  1,                                      !- Start Day
  12,                                     !- End Month
  31;                                     !- End Day

OS:Schedule:Day,
  {567641a6-e639-4ca9-a1e9-f0bf1f7e1828}, !- Handle
  cooling setpoint day,                   !- Name
  {795349e8-a7ec-481c-a6bb-f07807564340}, !- Schedule Type Limits Name
  ,                                       !- Interpolate to Timestep
  24,                                     !- Hour 1
  0,                                      !- Minute 1
  25.5555555555556;                       !- Value Until Time 1

OS:ThermostatSetpoint:DualSetpoint,
  {282a5e54-2b59-4da3-9118-4c50c731bb22}, !- Handle
  conditioned space temperature setpoint, !- Name
  {b85c5fb2-5085-4ed8-826d-fc1b709a684f}, !- Heating Setpoint Temperature Schedule Name
  {e7c9e85e-2bde-40cf-bce0-9dae481da07d}, !- Cooling Setpoint Temperature Schedule Name
  0;                                      !- Temperature Difference Between Cutout And Setpoint {deltaC}

OS:ScheduleTypeLimits,
  {795349e8-a7ec-481c-a6bb-f07807564340}, !- Handle
  Temperature,                            !- Name
  ,                                       !- Lower Limit Value
  ,                                       !- Upper Limit Value
  Continuous,                             !- Numeric Type
  Temperature;                            !- Unit Type

OS:Surface,
  {0d78d1e9-31ce-43f0-9a5b-fab5c1633d3a}, !- Handle
  Roof1,                                  !- Name
  RoofCeiling,                            !- Surface Type
  {85162656-ca6b-422e-af88-a4abe6f075b1}, !- Construction Name
  {d58b4edd-c449-4942-b95e-dbe09bdc0924}, !- Space Name
  Outdoors,                               !- Outside Boundary Condition
  ,                                       !- Outside Boundary Condition Object
  SunExposed,                             !- Sun Exposure
  WindExposed,                            !- Wind Exposure
  ,                                       !- View Factor to Ground
  ,                                       !- Number of Vertices
  -26.9347048849634, 58.0557891618865, 2.4384, !- X,Y,Z Vertex 1 {m}
  -26.9347048849634, 46.7895631136661, 8.0715130241102, !- X,Y,Z Vertex 2 {m}
  -14.3386812381136, 46.7895631136661, 8.0715130241102, !- X,Y,Z Vertex 3 {m}
  -14.3386812381136, 58.0557891618865, 2.4384; !- X,Y,Z Vertex 4 {m}

OS:AdditionalProperties,
  {b63206d8-a9ce-4892-9c6f-f8260729e2ff}, !- Handle
  {0d78d1e9-31ce-43f0-9a5b-fab5c1633d3a}, !- Object Name
  Length,                                 !- Feature Name 1
  Double,                                 !- Feature Data Type 1
  41.325536899113608,                     !- Feature Value 1
  Width,                                  !- Feature Name 2
  Double,                                 !- Feature Data Type 2
  41.325536899113601,                     !- Feature Value 2
  Azimuth,                                !- Feature Name 3
  Integer,                                !- Feature Data Type 3
  0,                                      !- Feature Value 3
  Tilt,                                   !- Feature Name 4
  Double,                                 !- Feature Data Type 4
  0.5,                                    !- Feature Value 4
  SurfaceType,                            !- Feature Name 5
  String,                                 !- Feature Data Type 5
  Roof;                                   !- Feature Value 5

OS:ThermalZone,
  {d601d360-07b2-4092-95d0-b339acf99b56}, !- Handle
  attic - vented,                         !- Name
  1,                                      !- Multiplier
  ,                                       !- Ceiling Height {m}
  356.390921899745,                       !- Volume {m3}
  ,                                       !- Floor Area {m2}
  ,                                       !- Zone Inside Convection Algorithm
  ,                                       !- Zone Outside Convection Algorithm
  ,                                       !- Zone Conditioning Equipment List Name
  {2c3c9844-b747-4f7d-97a9-9cc7a409fea0}, !- Zone Air Inlet Port List
  {92119c58-2b48-487c-9816-a3de03c4358b}, !- Zone Air Exhaust Port List
  {c9b665f8-1b56-4758-abfe-78a66f67f764}, !- Zone Air Node Name
  {a47811dd-c4b5-47b9-bd80-48e65e0dc09e}, !- Zone Return Air Port List
  ,                                       !- Primary Daylighting Control Name
  ,                                       !- Fraction of Zone Controlled by Primary Daylighting Control
  ,                                       !- Secondary Daylighting Control Name
  ,                                       !- Fraction of Zone Controlled by Secondary Daylighting Control
  ,                                       !- Illuminance Map Name
  ,                                       !- Group Rendering Name
  ,                                       !- Thermostat Name
  No;                                     !- Use Ideal Air Loads

OS:Node,
  {de21b33c-0c31-4faf-b432-a8343ab4093f}, !- Handle
  Node 2,                                 !- Name
  {c9b665f8-1b56-4758-abfe-78a66f67f764}, !- Inlet Port
  ;                                       !- Outlet Port

OS:Connection,
  {c9b665f8-1b56-4758-abfe-78a66f67f764}, !- Handle
  {d601d360-07b2-4092-95d0-b339acf99b56}, !- Source Object
  11,                                     !- Outlet Port
  {de21b33c-0c31-4faf-b432-a8343ab4093f}, !- Target Object
  2;                                      !- Inlet Port

OS:PortList,
  {2c3c9844-b747-4f7d-97a9-9cc7a409fea0}, !- Handle
  {d601d360-07b2-4092-95d0-b339acf99b56}; !- HVAC Component

OS:PortList,
  {92119c58-2b48-487c-9816-a3de03c4358b}, !- Handle
  {d601d360-07b2-4092-95d0-b339acf99b56}; !- HVAC Component

OS:PortList,
  {a47811dd-c4b5-47b9-bd80-48e65e0dc09e}, !- Handle
  {d601d360-07b2-4092-95d0-b339acf99b56}; !- HVAC Component

OS:Sizing:Zone,
  {7b349413-3954-4070-855e-d6e05f77f75d}, !- Handle
  {d601d360-07b2-4092-95d0-b339acf99b56}, !- Zone or ZoneList Name
  SupplyAirTemperature,                   !- Zone Cooling Design Supply Air Temperature Input Method
  14,                                     !- Zone Cooling Design Supply Air Temperature {C}
  11.11,                                  !- Zone Cooling Design Supply Air Temperature Difference {deltaC}
  SupplyAirTemperature,                   !- Zone Heating Design Supply Air Temperature Input Method
  40,                                     !- Zone Heating Design Supply Air Temperature {C}
  11.11,                                  !- Zone Heating Design Supply Air Temperature Difference {deltaC}
  0.0085,                                 !- Zone Cooling Design Supply Air Humidity Ratio {kg-H2O/kg-air}
  0.008,                                  !- Zone Heating Design Supply Air Humidity Ratio {kg-H2O/kg-air}
  ,                                       !- Zone Heating Sizing Factor
  ,                                       !- Zone Cooling Sizing Factor
  DesignDay,                              !- Cooling Design Air Flow Method
  ,                                       !- Cooling Design Air Flow Rate {m3/s}
  ,                                       !- Cooling Minimum Air Flow per Zone Floor Area {m3/s-m2}
  ,                                       !- Cooling Minimum Air Flow {m3/s}
  ,                                       !- Cooling Minimum Air Flow Fraction
  DesignDay,                              !- Heating Design Air Flow Method
  ,                                       !- Heating Design Air Flow Rate {m3/s}
  ,                                       !- Heating Maximum Air Flow per Zone Floor Area {m3/s-m2}
  ,                                       !- Heating Maximum Air Flow {m3/s}
  ,                                       !- Heating Maximum Air Flow Fraction
  No,                                     !- Account for Dedicated Outdoor Air System
  NeutralSupplyAir,                       !- Dedicated Outdoor Air System Control Strategy
  autosize,                               !- Dedicated Outdoor Air Low Setpoint Temperature for Design {C}
  autosize,                               !- Dedicated Outdoor Air High Setpoint Temperature for Design {C}
  Sensible Load Only No Latent Load,      !- Zone Load Sizing Method
  HumidityRatioDifference,                !- Zone Latent Cooling Design Supply Air Humidity Ratio Input Method
  ,                                       !- Zone Dehumidification Design Supply Air Humidity Ratio {kgWater/kgDryAir}
  0.005,                                  !- Zone Cooling Design Supply Air Humidity Ratio Difference {kgWater/kgDryAir}
  HumidityRatioDifference,                !- Zone Latent Heating Design Supply Air Humidity Ratio Input Method
  ,                                       !- Zone Humidification Design Supply Air Humidity Ratio {kgWater/kgDryAir}
  0.005,                                  !- Zone Humidification Design Supply Air Humidity Ratio Difference {kgWater/kgDryAir}
  ,                                       !- Zone Humidistat Dehumidification Set Point Schedule Name
  ,                                       !- Zone Humidistat Humidification Set Point Schedule Name
  ,                                       !- Design Zone Air Distribution Effectiveness in Cooling Mode
  ,                                       !- Design Zone Air Distribution Effectiveness in Heating Mode
  ,                                       !- Design Zone Secondary Recirculation Fraction {dimensionless}
  ,                                       !- Design Minimum Zone Ventilation Efficiency {dimensionless}
  Coincident;                             !- Sizing Option

OS:ZoneHVAC:EquipmentList,
  {63627553-c532-457d-9491-8a893534ae70}, !- Handle
  Zone HVAC Equipment List 2,             !- Name
  {d601d360-07b2-4092-95d0-b339acf99b56}; !- Thermal Zone

OS:AdditionalProperties,
  {b2188e68-a5b2-41d8-aa82-763786ee3987}, !- Handle
  {d601d360-07b2-4092-95d0-b339acf99b56}, !- Object Name
  ObjectType,                             !- Feature Name 1
  String,                                 !- Feature Data Type 1
  attic - vented;                         !- Feature Value 1

OS:Space,
  {d58b4edd-c449-4942-b95e-dbe09bdc0924}, !- Handle
  attic - vented 1,                       !- Name
  ,                                       !- Space Type Name
  ,                                       !- Default Construction Set Name
  ,                                       !- Default Schedule Set Name
  ,                                       !- Direction of Relative North {deg}
  ,                                       !- X Origin {m}
  ,                                       !- Y Origin {m}
  ,                                       !- Z Origin {m}
  ,                                       !- Building Story Name
  {d601d360-07b2-4092-95d0-b339acf99b56}, !- Thermal Zone Name
  ,                                       !- Part of Total Floor Area
  ,                                       !- Design Specification Outdoor Air Object Name
  ,                                       !- Building Unit Name
  356.390921899745;                       !- Volume {m3}

OS:Material,
  {21e34a53-2dcb-4a7d-86cb-8dc814a08b38}, !- Handle
  asphalt or fiberglass shingles,         !- Name