
OS:Version,
  {f5514125-53f6-4646-bb5c-54499fd1e2c6}, !- Handle
  3.10.0;                                 !- Version Identifier

OS:SimulationControl,
  {48ff3331-2b8e-411d-94a0-b7942543d405}, !- Handle
  ,                                       !- Do Zone Sizing Calculation
  ,                                       !- Do System Sizing Calculation
  ,                                       !- Do Plant Sizing Calculation
  No;                                     !- Run Simulation for Sizing Periods

OS:Timestep,
  {09221197-2d42-4b8b-b409-f0ef2be8e302}, !- Handle
  1;                                      !- Number of Timesteps per Hour

OS:ShadowCalculation,
  {69150661-3856-47b0-bb87-024170cc9587}, !- Handle
  PolygonClipping,                        !- Shading Calculation Method
  ,                                       !- Shading Calculation Update Frequency Method
  20,                                     !- Shading Calculation Update Frequency
  200,                                    !- Maximum Figures in Shadow Overlap Calculations
  ,                                       !- Polygon Clipping Algorithm
  512,                                    !- Pixel Counting Resolution
  ,                                       !- Sky Diffuse Modeling Algorithm
  No,                                     !- Output External Shading Calculation Results
  No,                                     !- Disable Self-Shading Within Shading Zone Groups
  No;                                     !- Disable Self-Shading From Shading Zone Groups to Other Zones

OS:SurfaceConvectionAlgorithm:Outside,
  {653f3bdc-5971-46c5-a739-4ba8cf788c02}, !- Handle
  DOE-2;                                  !- Algorithm

OS:SurfaceConvectionAlgorithm:Inside,
  {efcac030-4c1e-47ad-8482-e79ac82940b5}, !- Handle
  TARP;                                   !- Algorithm

OS:ZoneCapacitanceMultiplier:ResearchSpecial,
  {82a221bc-e0ec-4bb8-bdc5-fda000470729}, !- Handle
  7,                                      !- Temperature Capacity Multiplier
  15,                                     !- Humidity Capacity Multiplier
  ;                                       !- Carbon Dioxide Capacity Multiplier

OS:ConvergenceLimits,
  {e071a889-83f1-4c98-8020-98f9b6ca310f}, !- Handle
  0;                                      !- Minimum System Timestep {minutes}

OS:RunPeriod,
  {88ad38de-38d2-4885-8de7-a4fc0943b166}, !- Handle
  Run Period 1,                           !- Name
  1,                                      !- Begin Month
  1,                                      !- Begin Day of Month
  12,                                     !- End Month
  31,                                     !- End Day of Month
  ,                                       !- Use Weather File Holidays and Special Days
  ,                                       !- Use Weather File Daylight Saving Period
  ,                                       !- Apply Weekend Holiday Rule
  ,                                       !- Use Weather File Rain Indicators
  ,                                       !- Use Weather File Snow Indicators
  ;                                       !- Number of Times Runperiod to be Repeated

OS:PerformancePrecisionTradeoffs,
  {38545ee6-6059-4d3a-bf08-4be8405d4bf7}, !- Handle
  ,                                       !- Use Coil Direct Solutions
  CarrollMRT;                             !- Zone Radiant Exchange Algorithm

OS:WeatherFile,
  {6a58f5e0-9703-49eb-ac5b-dbd30d0efb5d}, !- Handle
  Buffalo Niagara Intl Ap,                !- City
  NY,                                     !- State Province Region
  USA,                                    !- Country
  TMY3,                                   !- Data Source
  725280,                                 !- WMO Number
  42.93,                                  !- Latitude {deg}
  -78.73,                                 !- Longitude {deg}
  -5,                                     !- Time Zone {hr}
  215,                                    !- Elevation {m}
  /Users/nmoore/github/urbanopt-example-geojson-project/example_project/weather/USA_NY_Buffalo-Greater.Buffalo.Intl.AP.725280_TMY3.epw, !- Url
  6B50E0FF,                               !- Checksum
  ,                                       !- Start Date Actual Year
  Sunday;                                 !- Start Day of Week

OS:YearDescription,
  {d0860a93-a1fe-4ca3-9cfc-83a827a5de8f}, !- Handle
  2007,                                   !- Calendar Year
  ,                                       !- Day of Week for Start Day
  ;                                       !- Is Leap Year

OS:Site,
  {5503998f-478e-4a15-8ad8-c9d9e02cb3d8}, !- Handle
  Buffalo Niagara Intl Ap_NY,             !- Name
  42.93,                                  !- Latitude {deg}
  -78.73,                                 !- Longitude {deg}
  -5,                                     !- Time Zone {hr}
  215,                                    !- Elevation {m}
  Suburbs,                                !- Terrain
  Yes;                                    !- Keep Site Location Information

OS:RunPeriodControl:DaylightSavingTime,
  {dc2b5ea3-5ea3-41e8-87f9-981054f847b4}, !- Handle
  Mar 12,                                 !- Start Date
  Nov 5;                                  !- End Date

OS:Site:GroundTemperature:Shallow,
  {9f14d6f9-af65-43ae-8ee7-6eeecbac8130}, !- Handle
  4.30207395723828,                       !- January Surface Ground Temperature {C}
  2.29327249652502,                       !- February Surface Ground Temperature {C}
  2.13240047156047,                       !- March Surface Ground Temperature {C}
  3.08567940719286,                       !- April Surface Ground Temperature {C}
  6.91256312497526,                       !- May Surface Ground Temperature {C}
  10.7216195949507,                       !- June Surface Ground Temperature {C}
  14.0238679822574,                       !- July Surface Ground Temperature {C}
  16.1157611184724,                       !- August Surface Ground Temperature {C}
  16.2934789303462,                       !- September Surface Ground Temperature {C}
  14.5920754632847,                       !- October Surface Ground Temperature {C}
  11.374036348653,                        !- November Surface Ground Temperature {C}
  7.68182621661674;                       !- December Surface Ground Temperature {C}

OS:ThermalZone,
  {a77f32e5-975f-495f-8fbb-19e61100cc67}, !- Handle
  conditioned space,                      !- Name
  1,                                      !- Multiplier
  ,                                       !- Ceiling Height {m}
  951.587629724161,                       !- Volume {m3}
  ,                                       !- Floor Area {m2}
  ,                                       !- Zone Inside Convection Algorithm
  ,                                       !- Zone Outside Convection Algorithm
  ,                                       !- Zone Conditioning Equipment List Name
  {cc1dafbd-c880-4af2-b5be-e9306acef28b}, !- Zone Air Inlet Port List
  {09ba1bfb-ae7d-42b5-b5f2-c02e3d30a306}, !- Zone Air Exhaust Port List
  {ac43009c-4ec6-47b7-ba0c-f2806510ad16}, !- Zone Air Node Name
  {5849ab54-a3f2-4f8d-ab53-06ef42242910}, !- Zone Return Air Port List
  ,                                       !- Primary Daylighting Control Name
  ,                                       !- Fraction of Zone Controlled by Primary Daylighting Control
  ,                                       !- Secondary Daylighting Control Name
  ,                                       !- Fraction of Zone Controlled by Secondary Daylighting Control
  ,                                       !- Illuminance Map Name
  ,                                       !- Group Rendering Name
  {0ae0aad9-a07c-4263-a9c2-876fad811f84}, !- Thermostat Name
  No;                                     !- Use Ideal Air Loads

OS:Node,
  {be1d2f2c-6d35-428c-8084-2c3d8e97b98b}, !- Handle
  Node 1,                                 !- Name
  {ac43009c-4ec6-47b7-ba0c-f2806510ad16}, !- Inlet Port
  ;                                       !- Outlet Port

OS:Connection,
  {ac43009c-4ec6-47b7-ba0c-f2806510ad16}, !- Handle
  {a77f32e5-975f-495f-8fbb-19e61100cc67}, !- Source Object
  11,                                     !- Outlet Port
  {be1d2f2c-6d35-428c-8084-2c3d8e97b98b}, !- Target Object
  2;                                      !- Inlet Port

OS:PortList,
  {cc1dafbd-c880-4af2-b5be-e9306acef28b}, !- Handle
  {a77f32e5-975f-495f-8fbb-19e61100cc67}, !- HVAC Component
  {db2d14a0-000b-4719-8ffc-1a023f9ee2ed}; !- Port 1

OS:PortList,
  {09ba1bfb-ae7d-42b5-b5f2-c02e3d30a306}, !- Handle
  {a77f32e5-975f-495f-8fbb-19e61100cc67}; !- HVAC Component

OS:PortList,
  {5849ab54-a3f2-4f8d-ab53-06ef42242910}, !- Handle
  {a77f32e5-975f-495f-8fbb-19e61100cc67}, !- HVAC Component
  {b42e9a60-80e3-4c4a-97be-f6fae2c66ecf}; !- Port 1

OS:Sizing:Zone,
  {996f39dc-6341-4769-8ad1-5c797c8156f9}, !- Handle
  {a77f32e5-975f-495f-8fbb-19e61100cc67}, !- Zone or ZoneList Name
  SupplyAirTemperature,                   !- Zone Cooling Design Supply Air Temperature Input Method
  14,                                     !- Zone Cooling Design Supply Air Temperature {C}
  11.11,                                  !- Zone Cooling Design Supply Air Temperature Difference {deltaC}
  SupplyAirTemperature,                   !- Zone Heating Design Supply Air Temperature Input Method
  40,                                     !- Zone Heating Design Supply Air Temperature {C}
  11.11,                                  !- Zone Heating Design Supply Air Temperature Difference {deltaC}
  0.0085,                                 !- Zone Cooling Design Supply Air Humidity Ratio {kg-H2O/kg-air}
  0.008,                                  !- Zone Heating Design Supply Air Humidity Ratio {kg-H2O/kg-air}
  ,                                       !- Zone Heating Sizing Factor
  ,                                       !- Zone Cooling Sizing Factor
  DesignDay,                              !- Cooling Design Air Flow Method
  ,                                       !- Cooling Design Air Flow Rate {m3/s}
  ,                                       !- Cooling Minimum Air Flow per Zone Floor Area {m3/s-m2}
  ,                                       !- Cooling Minimum Air Flow {m3/s}
  ,                                       !- Cooling Minimum Air Flow Fraction
  DesignDay,                              !- Heating Design Air Flow Method
  ,                                       !- Heating Design Air Flow Rate {m3/s}
  ,                                       !- Heating Maximum Air Flow per Zone Floor Area {m3/s-m2}
  ,                                       !- Heating Maximum Air Flow {m3/s}
  ,                                       !- Heating Maximum Air Flow Fraction
  No,                                     !- Account for Dedicated Outdoor Air System
  NeutralSupplyAir,                       !- Dedicated Outdoor Air System Control Strategy
  autosize,                               !- Dedicated Outdoor Air Low Setpoint Temperature for Design {C}
  autosize,                               !- Dedicated Outdoor Air High Setpoint Temperature for Design {C}
  Sensible Load Only No Latent Load,      !- Zone Load Sizing Method
  HumidityRatioDifference,                !- Zone Latent Cooling Design Supply Air Humidity Ratio Input Method
  ,                                       !- Zone Dehumidification Design Supply Air Humidity Ratio {kgWater/kgDryAir}
  0.005,                                  !- Zone Cooling Design Supply Air Humidity Ratio Difference {kgWater/kgDryAir}
  HumidityRatioDifference,                !- Zone Latent Heating Design Supply Air Humidity Ratio Input Method
  ,                                       !- Zone Humidification Design Supply Air Humidity Ratio {kgWater/kgDryAir}
  0.005,                                  !- Zone Humidification Design Supply Air Humidity Ratio Difference {kgWater/kgDryAir}
  ,                                       !- Zone Humidistat Dehumidification Set Point Schedule Name
  ,                                       !- Zone Humidistat Humidification Set Point Schedule Name
  ,                                       !- Design Zone Air Distribution Effectiveness in Cooling Mode
  ,                                       !- Design Zone Air Distribution Effectiveness in Heating Mode
  ,                                       !- Design Zone Secondary Recirculation Fraction {dimensionless}
  ,                                       !- Design Minimum Zone Ventilation Efficiency {dimensionless}
  Coincident;                             !- Sizing Option

OS:ZoneHVAC:EquipmentList,
  {a4344531-1503-497f-9160-78ae0bba6d9d}, !- Handle
  Zone HVAC Equipment List 1,             !- Name
  {a77f32e5-975f-495f-8fbb-19e61100cc67}, !- Thermal Zone
  ,                                       !- Load Distribution Scheme
  {86439b12-8983-4f37-943f-f5144acabd22}, !- Zone Equipment 1
  1,                                      !- Zone Equipment Cooling Sequence 1
  1,                                      !- Zone Equipment Heating or No-Load Sequence 1
  {5b374406-4dcb-4178-aa9c-fabd5fd327b2}, !- Zone Equipment Sequential Cooling Fraction Schedule Name 1
  {4591382d-5965-4db7-b0fc-084cbb64da28}; !- Zone Equipment Sequential Heating Fraction Schedule Name 1

OS:AdditionalProperties,
  {5b51971b-cfe8-4164-a333-a4367d09f3ad}, !- Handle
  {a77f32e5-975f-495f-8fbb-19e61100cc67}, !- Object Name
  ObjectType,                             !- Feature Name 1
  String,                                 !- Feature Data Type 1
  conditioned space;                      !- Feature Value 1

OS:Space,
  {a5aa88c3-14a8-4cdc-9978-ac1ceaa118e9}, !- Handle
  conditioned space 1,                    !- Name
  ,                                       !- Space Type Name
  ,                                       !- Default Construction Set Name
  ,                                       !- Default Schedule Set Name
  ,                                       !- Direction of Relative North {deg}
  ,                                       !- X Origin {m}
  ,                                       !- Y Origin {m}
  ,                                       !- Z Origin {m}
  ,                                       !- Building Story Name
  {a77f32e5-975f-495f-8fbb-19e61100cc67}, !- Thermal Zone Name
  ,                                       !- Part of Total Floor Area
  ,                                       !- Design Specification Outdoor Air Object Name
  ,                                       !- Building Unit Name
  951.587629724161;                       !- Volume {m3}

OS:Schedule:Ruleset,
  {d8bb5540-ddba-4016-8c73-2368617d0906}, !- Handle
  heating setpoint,                       !- Name
  {71e5c1a3-8264-4c2e-a04b-76511046615a}, !- Schedule Type Limits Name
  {36da8b03-abff-45e0-9039-ad48dd06134e}; !- Default Day Schedule Name

OS:Schedule:Day,
  {36da8b03-abff-45e0-9039-ad48dd06134e}, !- Handle
  heating setpoint default day,           !- Name
  {71e5c1a3-8264-4c2e-a04b-76511046615a}, !- Schedule Type Limits Name
  ,                                       !- Interpolate to Timestep
  24,                                     !- Hour 1
  0,                                      !- Minute 1
  0;                                      !- Value Until Time 1

OS:Schedule:Rule,
  {623007e4-5e22-473b-bdf3-05d9ad8e894c}, !- Handle
  heating setpoint allday rule,           !- Name
  {d8bb5540-ddba-4016-8c73-2368617d0906}, !- Schedule Ruleset Name
  0,                                      !- Rule Order
  {57f14474-2b4c-4dbc-83a4-d0af2edfb2c3}, !- Day Schedule Name
  Yes,                                    !- Apply Sunday
  Yes,                                    !- Apply Monday
  Yes,                                    !- Apply Tuesday
  Yes,                                    !- Apply Wednesday
  Yes,                                    !- Apply Thursday
  Yes,                                    !- Apply Friday
  Yes,                                    !- Apply Saturday
  DateRange,                              !- Date Specification Type
  1,                                      !- Start Month
  1,                                      !- Start Day
  12,                                     !- End Month
  31;                                     !- End Day

OS:Schedule:Day,
  {57f14474-2b4c-4dbc-83a4-d0af2edfb2c3}, !- Handle
  heating setpoint day,                   !- Name
  {71e5c1a3-8264-4c2e-a04b-76511046615a}, !- Schedule Type Limits Name
  ,                                       !- Interpolate to Timestep
  24,                                     !- Hour 1
  0,                                      !- Minute 1
  20;                                     !- Value Until Time 1

OS:Schedule:Ruleset,
  {f492b13a-1443-4e06-a12f-399037107e30}, !- Handle
  cooling setpoint,                       !- Name
  {71e5c1a3-8264-4c2e-a04b-76511046615a}, !- Schedule Type Limits Name
  {a5fa45b4-e059-4bcc-b943-0436feaac7c0}; !- Default Day Schedule Name

OS:Schedule:Day,
  {a5fa45b4-e059-4bcc-b943-0436feaac7c0}, !- Handle
  cooling setpoint default day,           !- Name
  {71e5c1a3-8264-4c2e-a04b-76511046615a}, !- Schedule Type Limits Name
  ,                                       !- Interpolate to Timestep
  24,                                     !- Hour 1
  0,                                      !- Minute 1
  0;                                      !- Value Until Time 1

OS:Schedule:Rule,
  {acceb22f-0bd3-4176-b5ee-ee5d9949131f}, !- Handle
  cooling setpoint allday rule,           !- Name
  {f492b13a-1443-4e06-a12f-399037107e30}, !- Schedule Ruleset Name
  0,                                      !- Rule Order
  {4bc41670-9d2b-4504-bf75-cb65e98f5542}, !- Day Schedule Name
  Yes,                                    !- Apply Sunday
  Yes,                                    !- Apply Monday
  Yes,                                    !- Apply Tuesday
  Yes,                                    !- Apply Wednesday
  Yes,                                    !- Apply Thursday
  Yes,                                    !- Apply Friday
  Yes,                                    !- Apply Saturday
  DateRange,                              !- Date Specification Type
  1,                                      !- Start Month
  1,                                      !- Start Day
  12,                                     !- End Month
  31;                                     !- End Day

OS:Schedule:Day,
  {4bc41670-9d2b-4504-bf75-cb65e98f5542}, !- Handle
  cooling setpoint day,                   !- Name
  {71e5c1a3-8264-4c2e-a04b-76511046615a}, !- Schedule Type Limits Name
  ,                                       !- Interpolate to Timestep
  24,                                     !- Hour 1
  0,                                      !- Minute 1
  25.5555555555556;                       !- Value Until Time 1

OS:ThermostatSetpoint:DualSetpoint,
  {0ae0aad9-a07c-4263-a9c2-876fad811f84}, !- Handle
  conditioned space temperature setpoint, !- Name
  {d8bb5540-ddba-4016-8c73-2368617d0906}, !- Heating Setpoint Temperature Schedule Name
  {f492b13a-1443-4e06-a12f-399037107e30}, !- Cooling Setpoint Temperature Schedule Name
  0;                                      !- Temperature Difference Between Cutout And Setpoint {deltaC}

OS:ScheduleTypeLimits,
  {71e5c1a3-8264-4c2e-a04b-76511046615a}, !- Handle
  Temperature,                            !- Name
  ,                                       !- Lower Limit Value
  ,                                       !- Upper Limit Value
  Continuous,                             !- Numeric Type
  Temperature;                            !- Unit Type

OS:Surface,
  {8a0f70cb-33c3-4976-b253-956f48183a2d}, !- Handle
  Roof1,                                  !- Name
  RoofCeiling,                            !- Surface Type
  {89a23582-5b25-487b-9f1a-7b72ae3da36d}, !- Construction Name
  {10740ee5-bd97-4758-8438-f0774aff5b99}, !- Space Name
  Outdoors,                               !- Outside Boundary Condition
  ,                                       !- Outside Boundary Condition Object
  SunExposed,                             !- Sun Exposure
  WindExposed,                            !- Wind Exposure
  ,                                       !- View Factor to Ground
  ,                                       !- Number of Vertices
  -26.9347048849634, 58.0557891618865, 2.4384, !- X,Y,Z Vertex 1 {m}
  -26.9347048849634, 46.7895631136661, 8.0715130241102, !- X,Y,Z Vertex 2 {m}
  -14.3386812381136, 46.7895631136661, 8.0715130241102, !- X,Y,Z Vertex 3 {m}
  -14.3386812381136, 58.0557891618865, 2.4384; !- X,Y,Z Vertex 4 {m}

OS:AdditionalProperties,
  {b22bfc33-ee7e-4690-9d9e-aeec24336308}, !- Handle
  {8a0f70cb-33c3-4976-b253-956f48183a2d}, !- Object Name
  Length,                                 !- Feature Name 1
  Double,                                 !- Feature Data Type 1
  41.325536899113608,                     !- Feature Value 1
  Width,                                  !- Feature Name 2
  Double,                                 !- Feature Data Type 2
  41.325536899113601,                     !- Feature Value 2
  Azimuth,                                !- Feature Name 3
  Integer,                                !- Feature Data Type 3
  0,                                      !- Feature Value 3
  Tilt,                                   !- Feature Name 4
  Double,                                 !- Feature Data Type 4
  0.5,                                    !- Feature Value 4
  SurfaceType,                            !- Feature Name 5
  String,                                 !- Feature Data Type 5
  Roof;                                   !- Feature Value 5

OS:ThermalZone,
  {991e9ec1-688f-466b-a2c7-5a56936adf99}, !- Handle
  attic - vented,                         !- Name
  1,                                      !- Multiplier
  ,                                       !- Ceiling Height {m}
  356.390921899745,                       !- Volume {m3}
  ,                                       !- Floor Area {m2}
  ,                                       !- Zone Inside Convection Algorithm
  ,                                       !- Zone Outside Convection Algorithm
  ,                                       !- Zone Conditioning Equipment List Name
  {2327be8e-1a33-41fa-8370-d3f9bc08be0e}, !- Zone Air Inlet Port List
  {fa7f1ad5-7edd-4337-b83e-aea63934f834}, !- Zone Air Exhaust Port List
  {2ef6bb42-3ea5-4fa9-9bee-98045579b21d}, !- Zone Air Node Name
  {046a66a9-f6fa-450b-bcf5-490a15a2edfc}, !- Zone Return Air Port List
  ,                                       !- Primary Daylighting Control Name
  ,                                       !- Fraction of Zone Controlled by Primary Daylighting Control
  ,                                       !- Secondary Daylighting Control Name
  ,                                       !- Fraction of Zone Controlled by Secondary Daylighting Control
  ,                                       !- Illuminance Map Name
  ,                                       !- Group Rendering Name
  ,                                       !- Thermostat Name
  No;                                     !- Use Ideal Air Loads

OS:Node,
  {34e88452-153e-4560-8b68-ecf28ee8900d}, !- Handle
  Node 2,                                 !- Name
  {2ef6bb42-3ea5-4fa9-9bee-98045579b21d}, !- Inlet Port
  ;                                       !- Outlet Port

OS:Connection,
  {2ef6bb42-3ea5-4fa9-9bee-98045579b21d}, !- Handle
  {991e9ec1-688f-466b-a2c7-5a56936adf99}, !- Source Object
  11,                                     !- Outlet Port
  {34e88452-153e-4560-8b68-ecf28ee8900d}, !- Target Object
  2;                                      !- Inlet Port

OS:PortList,
  {2327be8e-1a33-41fa-8370-d3f9bc08be0e}, !- Handle
  {991e9ec1-688f-466b-a2c7-5a56936adf99}; !- HVAC Component

OS:PortList,
  {fa7f1ad5-7edd-4337-b83e-aea63934f834}, !- Handle
  {991e9ec1-688f-466b-a2c7-5a56936adf99}; !- HVAC Component

OS:PortList,
  {046a66a9-f6fa-450b-bcf5-490a15a2edfc}, !- Handle
  {991e9ec1-688f-466b-a2c7-5a56936adf99}; !- HVAC Component

OS:Sizing:Zone,
  {2ca29030-2aa3-496c-9adc-0312bb0a63d2}, !- Handle
  {991e9ec1-688f-466b-a2c7-5a56936adf99}, !- Zone or ZoneList Name
  SupplyAirTemperature,                   !- Zone Cooling Design Supply Air Temperature Input Method
  14,                                     !- Zone Cooling Design Supply Air Temperature {C}
  11.11,                                  !- Zone Cooling Design Supply Air Temperature Difference {deltaC}
  SupplyAirTemperature,                   !- Zone Heating Design Supply Air Temperature Input Method
  40,                                     !- Zone Heating Design Supply Air Temperature {C}
  11.11,                                  !- Zone Heating Design Supply Air Temperature Difference {deltaC}
  0.0085,                                 !- Zone Cooling Design Supply Air Humidity Ratio {kg-H2O/kg-air}
  0.008,                                  !- Zone Heating Design Supply Air Humidity Ratio {kg-H2O/kg-air}
  ,                                       !- Zone Heating Sizing Factor
  ,                                       !- Zone Cooling Sizing Factor
  DesignDay,                              !- Cooling Design Air Flow Method
  ,                                       !- Cooling Design Air Flow Rate {m3/s}
  ,                                       !- Cooling Minimum Air Flow per Zone Floor Area {m3/s-m2}
  ,                                       !- Cooling Minimum Air Flow {m3/s}
  ,                                       !- Cooling Minimum Air Flow Fraction
  DesignDay,                              !- Heating Design Air Flow Method
  ,                                       !- Heating Design Air Flow Rate {m3/s}
  ,                                       !- Heating Maximum Air Flow per Zone Floor Area {m3/s-m2}
  ,                                       !- Heating Maximum Air Flow {m3/s}
  ,                                       !- Heating Maximum Air Flow Fraction
  No,                                     !- Account for Dedicated Outdoor Air System
  NeutralSupplyAir,                       !- Dedicated Outdoor Air System Control Strategy
  autosize,                               !- Dedicated Outdoor Air Low Setpoint Temperature for Design {C}
  autosize,                               !- Dedicated Outdoor Air High Setpoint Temperature for Design {C}
  Sensible Load Only No Latent Load,      !- Zone Load Sizing Method
  HumidityRatioDifference,                !- Zone Latent Cooling Design Supply Air Humidity Ratio Input Method
  ,                                       !- Zone Dehumidification Design Supply Air Humidity Ratio {kgWater/kgDryAir}
  0.005,                                  !- Zone Cooling Design Supply Air Humidity Ratio Difference {kgWater/kgDryAir}
  HumidityRatioDifference,                !- Zone Latent Heating Design Supply Air Humidity Ratio Input Method
  ,                                       !- Zone Humidification Design Supply Air Humidity Ratio {kgWater/kgDryAir}
  0.005,                                  !- Zone Humidification Design Supply Air Humidity Ratio Difference {kgWater/kgDryAir}
  ,                                       !- Zone Humidistat Dehumidification Set Point Schedule Name
  ,                                       !- Zone Humidistat Humidification Set Point Schedule Name
  ,                                       !- Design Zone Air Distribution Effectiveness in Cooling Mode
  ,                                       !- Design Zone Air Distribution Effectiveness in Heating Mode
  ,                                       !- Design Zone Secondary Recirculation Fraction {dimensionless}
  ,                                       !- Design Minimum Zone Ventilation Efficiency {dimensionless}
  Coincident;                             !- Sizing Option

OS:ZoneHVAC:EquipmentList,
  {385f11cc-d488-400d-a472-e9f4e29f6294}, !- Handle
  Zone HVAC Equipment List 2,             !- Name
  {991e9ec1-688f-466b-a2c7-5a56936adf99}; !- Thermal Zone

OS:AdditionalProperties,
  {5039eaf6-bab8-407d-bb6e-1506b1adb925}, !- Handle
  {991e9ec1-688f-466b-a2c7-5a56936adf99}, !- Object Name
  ObjectType,                             !- Feature Name 1
  String,                                 !- Feature Data Type 1
  attic - vented;                         !- Feature Value 1

OS:Space,
  {10740ee5-bd97-4758-8438-f0774aff5b99}, !- Handle
  attic - vented 1,                       !- Name
  ,                                       !- Space Type Name
  ,                                       !- Default Construction Set Name
  ,                                       !- Default Schedule Set Name
  ,                                       !- Direction of Relative North {deg}
  ,                                       !- X Origin {m}
  ,                                       !- Y Origin {m}
  ,                                       !- Z Origin {m}
  ,                                       !- Building Story Name
  {991e9ec1-688f-466b-a2c7-5a56936adf99}, !- Thermal Zone Name
  ,                                       !- Part of Total Floor Area
  ,                                       !- Design Specification Outdoor Air Object Name
  ,                                       !- Building Unit Name
  356.390921899745;                       !- Volume {m3}

OS:Material,
  {7bc71d11-c2ec-45b9-b7de-36f46ee2b901}, !- Handle
  asphalt or fiberglass shingles,         !- Name
  Rough,                                  !- Roughness
  0.00635,                                !- Thickness {m}
  0.162714,                               !- Conductivity {W/m-K}
  1121.4,                                 !- Density {kg/m3}
  1465.45,                                !- Specific Heat {J/kg-K}
  0.9,                                    !- Thermal Absorptance
  0.85,                                   !- Solar Absorptance