
OS:Version,
  {1b7c415d-3ac6-4872-b72a-520a662ffeb7}, !- Handle
  3.9.0;                                  !- Version Identifier

OS:SimulationControl,
  {a03b5202-b611-4298-9157-8cd4843ca53c}, !- Handle
  ,                                       !- Do Zone Sizing Calculation
  ,                                       !- Do System Sizing Calculation
  ,                                       !- Do Plant Sizing Calculation
  No;                                     !- Run Simulation for Sizing Periods

OS:Timestep,
  {8e76d7ec-9ba5-4643-88db-3a5307745c54}, !- Handle
  1;                                      !- Number of Timesteps per Hour

OS:ShadowCalculation,
  {7aa401ef-0742-41d9-9d00-5a0e8099eb8b}, !- Handle
  PolygonClipping,                        !- Shading Calculation Method
  ,                                       !- Shading Calculation Update Frequency Method
  20,                                     !- Shading Calculation Update Frequency
  200,                                    !- Maximum Figures in Shadow Overlap Calculations
  ,                                       !- Polygon Clipping Algorithm
  512,                                    !- Pixel Counting Resolution
  ,                                       !- Sky Diffuse Modeling Algorithm
  No,                                     !- Output External Shading Calculation Results
  No,                                     !- Disable Self-Shading Within Shading Zone Groups
  No;                                     !- Disable Self-Shading From Shading Zone Groups to Other Zones

OS:SurfaceConvectionAlgorithm:Outside,
  {c38154b3-a464-4725-a9b3-225749f83f87}, !- Handle
  DOE-2;                                  !- Algorithm

OS:SurfaceConvectionAlgorithm:Inside,
  {a59f3a7e-b6c4-49da-b83e-7042e5a79f01}, !- Handle
  TARP;                                   !- Algorithm

OS:ZoneCapacitanceMultiplier:ResearchSpecial,
  {c38b9d25-562c-4dee-b013-f5e3baf81fa0}, !- Handle
  7,                                      !- Temperature Capacity Multiplier
  15,                                     !- Humidity Capacity Multiplier
  ;                                       !- Carbon Dioxide Capacity Multiplier

OS:ConvergenceLimits,
  {745fa939-8d1f-4065-ae62-accdd33cab97}, !- Handle
  0;                                      !- Minimum System Timestep {minutes}

OS:RunPeriod,
  {be2b0c36-17d1-4974-83c7-e2643e7a5776}, !- Handle
  Run Period 1,                           !- Name
  1,                                      !- Begin Month
  1,                                      !- Begin Day of Month
  12,                                     !- End Month
  31,                                     !- End Day of Month
  ,                                       !- Use Weather File Holidays and Special Days
  ,                                       !- Use Weather File Daylight Saving Period
  ,                                       !- Apply Weekend Holiday Rule
  ,                                       !- Use Weather File Rain Indicators
  ,                                       !- Use Weather File Snow Indicators
  ;                                       !- Number of Times Runperiod to be Repeated

OS:PerformancePrecisionTradeoffs,
  {7a9ac209-d420-4742-b847-cdcdb9fb0bb8}, !- Handle
  ,                                       !- Use Coil Direct Solutions
  CarrollMRT;                             !- Zone Radiant Exchange Algorithm

OS:WeatherFile,
  {3d09f285-4999-4f3f-86c4-0a535d2d9baa}, !- Handle
  Buffalo Niagara Intl Ap,                !- City
  NY,                                     !- State Province Region
  USA,                                    !- Country
  TMY3,                                   !- Data Source
  725280,                                 !- WMO Number
  42.93,                                  !- Latitude {deg}
  -78.73,                                 !- Longitude {deg}
  -5,                                     !- Time Zone {hr}
  215,                                    !- Elevation {m}
  /Users/nmoore/github/urbanopt-example-geojson-project/example_project/weather/USA_NY_Buffalo-Greater.Buffalo.Intl.AP.725280_TMY3.epw, !- Url
  6B50E0FF,                               !- Checksum
  ,                                       !- Start Date Actual Year
  Sunday;                                 !- Start Day of Week

OS:YearDescription,
  {f5e772b7-00a6-417a-9b81-ce5b4aee038d}, !- Handle
  2007,                                   !- Calendar Year
  ,                                       !- Day of Week for Start Day
  ;                                       !- Is Leap Year

OS:Site,
  {36412ace-181f-4d3b-8f62-16b8f6ae8171}, !- Handle
  Buffalo Niagara Intl Ap_NY,             !- Name
  42.93,                                  !- Latitude {deg}
  -78.73,                                 !- Longitude {deg}
  -5,                                     !- Time Zone {hr}
  215,                                    !- Elevation {m}
  Suburbs,                                !- Terrain
  Yes;                                    !- Keep Site Location Information

OS:RunPeriodControl:DaylightSavingTime,
  {36107d89-e9b7-4784-bc9b-729ab0f56dbc}, !- Handle
  Mar 12,                                 !- Start Date
  Nov 5;                                  !- End Date

OS:Site:GroundTemperature:Shallow,
  {d728d436-8f81-4970-86b3-e94630db4b32}, !- Handle
  4.30207395723828,                       !- January Surface Ground Temperature {C}
  2.29327249652502,                       !- February Surface Ground Temperature {C}
  2.13240047156047,                       !- March Surface Ground Temperature {C}
  3.08567940719286,                       !- April Surface Ground Temperature {C}
  6.91256312497526,                       !- May Surface Ground Temperature {C}
  10.7216195949507,                       !- June Surface Ground Temperature {C}
  14.0238679822574,                       !- July Surface Ground Temperature {C}
  16.1157611184724,                       !- August Surface Ground Temperature {C}
  16.2934789303462,                       !- September Surface Ground Temperature {C}
  14.5920754632847,                       !- October Surface Ground Temperature {C}
  11.374036348653,                        !- November Surface Ground Temperature {C}
  7.68182621661674;                       !- December Surface Ground Temperature {C}

OS:ThermalZone,
  {919c0fad-4fb0-48ce-a6e4-2e46433bf156}, !- Handle
  conditioned space,                      !- Name
  1,                                      !- Multiplier
  ,                                       !- Ceiling Height {m}
  951.587629724161,                       !- Volume {m3}
  ,                                       !- Floor Area {m2}
  ,                                       !- Zone Inside Convection Algorithm
  ,                                       !- Zone Outside Convection Algorithm
  ,                                       !- Zone Conditioning Equipment List Name
  {79810472-617c-43e6-8365-abf3bb3aef21}, !- Zone Air Inlet Port List
  {d0f8b784-4cf0-4548-b868-e03c1b704320}, !- Zone Air Exhaust Port List
  {0c7df4d9-580e-4356-8f24-30e706a6844c}, !- Zone Air Node Name
  {9722fa42-5dd2-4218-9ac8-65a4ac546727}, !- Zone Return Air Port List
  ,                                       !- Primary Daylighting Control Name
  ,                                       !- Fraction of Zone Controlled by Primary Daylighting Control
  ,                                       !- Secondary Daylighting Control Name
  ,                                       !- Fraction of Zone Controlled by Secondary Daylighting Control
  ,                                       !- Illuminance Map Name
  ,                                       !- Group Rendering Name
  {5fd5ac9a-defd-4d40-976d-d585d4fe8fe0}, !- Thermostat Name
  No;                                     !- Use Ideal Air Loads

OS:Node,
  {2d026a8b-3fa4-49ba-aad1-3873463dc54a}, !- Handle
  Node 1,                                 !- Name
  {0c7df4d9-580e-4356-8f24-30e706a6844c}, !- Inlet Port
  ;                                       !- Outlet Port

OS:Connection,
  {0c7df4d9-580e-4356-8f24-30e706a6844c}, !- Handle
  {919c0fad-4fb0-48ce-a6e4-2e46433bf156}, !- Source Object
  11,                                     !- Outlet Port
  {2d026a8b-3fa4-49ba-aad1-3873463dc54a}, !- Target Object
  2;                                      !- Inlet Port

OS:PortList,
  {79810472-617c-43e6-8365-abf3bb3aef21}, !- Handle
  {919c0fad-4fb0-48ce-a6e4-2e46433bf156}, !- HVAC Component
  {56098084-3db7-4fc2-aa46-721d12ccf7fc}; !- Port 1

OS:PortList,
  {d0f8b784-4cf0-4548-b868-e03c1b704320}, !- Handle
  {919c0fad-4fb0-48ce-a6e4-2e46433bf156}; !- HVAC Component

OS:PortList,
  {9722fa42-5dd2-4218-9ac8-65a4ac546727}, !- Handle
  {919c0fad-4fb0-48ce-a6e4-2e46433bf156}, !- HVAC Component
  {309497dd-17af-4268-a025-bc1c7fb71d03}; !- Port 1

OS:Sizing:Zone,
  {18f1b2b7-cbfb-4859-9b7b-17189f685f23}, !- Handle
  {919c0fad-4fb0-48ce-a6e4-2e46433bf156}, !- Zone or ZoneList Name
  SupplyAirTemperature,                   !- Zone Cooling Design Supply Air Temperature Input Method
  14,                                     !- Zone Cooling Design Supply Air Temperature {C}
  11.11,                                  !- Zone Cooling Design Supply Air Temperature Difference {deltaC}
  SupplyAirTemperature,                   !- Zone Heating Design Supply Air Temperature Input Method
  40,                                     !- Zone Heating Design Supply Air Temperature {C}
  11.11,                                  !- Zone Heating Design Supply Air Temperature Difference {deltaC}
  0.0085,                                 !- Zone Cooling Design Supply Air Humidity Ratio {kg-H2O/kg-air}
  0.008,                                  !- Zone Heating Design Supply Air Humidity Ratio {kg-H2O/kg-air}
  ,                                       !- Zone Heating Sizing Factor
  ,                                       !- Zone Cooling Sizing Factor
  DesignDay,                              !- Cooling Design Air Flow Method
  ,                                       !- Cooling Design Air Flow Rate {m3/s}
  ,                                       !- Cooling Minimum Air Flow per Zone Floor Area {m3/s-m2}
  ,                                       !- Cooling Minimum Air Flow {m3/s}
  ,                                       !- Cooling Minimum Air Flow Fraction
  DesignDay,                              !- Heating Design Air Flow Method
  ,                                       !- Heating Design Air Flow Rate {m3/s}
  ,                                       !- Heating Maximum Air Flow per Zone Floor Area {m3/s-m2}
  ,                                       !- Heating Maximum Air Flow {m3/s}
  ,                                       !- Heating Maximum Air Flow Fraction
  No,                                     !- Account for Dedicated Outdoor Air System
  NeutralSupplyAir,                       !- Dedicated Outdoor Air System Control Strategy
  autosize,                               !- Dedicated Outdoor Air Low Setpoint Temperature for Design {C}
  autosize,                               !- Dedicated Outdoor Air High Setpoint Temperature for Design {C}
  Sensible Load Only No Latent Load,      !- Zone Load Sizing Method
  HumidityRatioDifference,                !- Zone Latent Cooling Design Supply Air Humidity Ratio Input Method
  ,                                       !- Zone Dehumidification Design Supply Air Humidity Ratio {kgWater/kgDryAir}
  0.005,                                  !- Zone Cooling Design Supply Air Humidity Ratio Difference {kgWater/kgDryAir}
  HumidityRatioDifference,                !- Zone Latent Heating Design Supply Air Humidity Ratio Input Method
  ,                                       !- Zone Humidification Design Supply Air Humidity Ratio {kgWater/kgDryAir}
  0.005,                                  !- Zone Humidification Design Supply Air Humidity Ratio Difference {kgWater/kgDryAir}
  ,                                       !- Zone Humidistat Dehumidification Set Point Schedule Name
  ,                                       !- Zone Humidistat Humidification Set Point Schedule Name
  ,                                       !- Design Zone Air Distribution Effectiveness in Cooling Mode
  ,                                       !- Design Zone Air Distribution Effectiveness in Heating Mode
  ,                                       !- Design Zone Secondary Recirculation Fraction {dimensionless}
  ,                                       !- Design Minimum Zone Ventilation Efficiency {dimensionless}
  Coincident;                             !- Sizing Option

OS:ZoneHVAC:EquipmentList,
  {65194606-a248-4f26-9fec-a37e19a23587}, !- Handle
  Zone HVAC Equipment List 1,             !- Name
  {919c0fad-4fb0-48ce-a6e4-2e46433bf156}, !- Thermal Zone
  ,                                       !- Load Distribution Scheme
  {ec19a574-b457-426c-9d9f-ec41d1c913ac}, !- Zone Equipment 1
  1,                                      !- Zone Equipment Cooling Sequence 1
  1,                                      !- Zone Equipment Heating or No-Load Sequence 1
  {a834b16e-0585-45aa-878e-07b2df3760c2}, !- Zone Equipment Sequential Cooling Fraction Schedule Name 1
  {446677da-6bba-468f-8739-c31b6bf8a8c1}; !- Zone Equipment Sequential Heating Fraction Schedule Name 1

OS:AdditionalProperties,
  {a9e16c9b-9021-4532-a8bf-cb9a82140504}, !- Handle
  {919c0fad-4fb0-48ce-a6e4-2e46433bf156}, !- Object Name
  ObjectType,                             !- Feature Name 1
  String,                                 !- Feature Data Type 1
  conditioned space;                      !- Feature Value 1

OS:Space,
  {5b1a3782-d0cd-4373-acca-84797b5d8fd1}, !- Handle
  conditioned space 1,                    !- Name
  ,                                       !- Space Type Name
  ,                                       !- Default Construction Set Name
  ,                                       !- Default Schedule Set Name
  ,                                       !- Direction of Relative North {deg}
  ,                                       !- X Origin {m}
  ,                                       !- Y Origin {m}
  ,                                       !- Z Origin {m}
  ,                                       !- Building Story Name
  {919c0fad-4fb0-48ce-a6e4-2e46433bf156}, !- Thermal Zone Name
  ,                                       !- Part of Total Floor Area
  ,                                       !- Design Specification Outdoor Air Object Name
  ,                                       !- Building Unit Name
  951.587629724161;                       !- Volume {m3}

OS:Schedule:Ruleset,
  {c172bdd4-6764-49d9-ac7d-8f0ada54e748}, !- Handle
  heating setpoint,                       !- Name
  {d98f4bd2-12e1-4ef4-9b61-e580b6f87e0c}, !- Schedule Type Limits Name
  {d2e68436-8448-47ea-a7f9-1c37ddeb1222}; !- Default Day Schedule Name

OS:Schedule:Day,
  {d2e68436-8448-47ea-a7f9-1c37ddeb1222}, !- Handle
  heating setpoint default day,           !- Name
  {d98f4bd2-12e1-4ef4-9b61-e580b6f87e0c}, !- Schedule Type Limits Name
  ,                                       !- Interpolate to Timestep
  24,                                     !- Hour 1
  0,                                      !- Minute 1
  0;                                      !- Value Until Time 1

OS:Schedule:Rule,
  {8bd0d3dd-43e6-4b90-b075-e1c69f6683ee}, !- Handle
  heating setpoint allday rule,           !- Name
  {c172bdd4-6764-49d9-ac7d-8f0ada54e748}, !- Schedule Ruleset Name
  0,                                      !- Rule Order
  {e7fd83ab-3f1c-4eb5-8d5e-77ee1d72b9ee}, !- Day Schedule Name
  Yes,                                    !- Apply Sunday
  Yes,                                    !- Apply Monday
  Yes,                                    !- Apply Tuesday
  Yes,                                    !- Apply Wednesday
  Yes,                                    !- Apply Thursday
  Yes,                                    !- Apply Friday
  Yes,                                    !- Apply Saturday
  DateRange,                              !- Date Specification Type
  1,                                      !- Start Month
  1,                                      !- Start Day
  12,                                     !- End Month
  31;                                     !- End Day

OS:Schedule:Day,
  {e7fd83ab-3f1c-4eb5-8d5e-77ee1d72b9ee}, !- Handle
  heating setpoint day,                   !- Name
  {d98f4bd2-12e1-4ef4-9b61-e580b6f87e0c}, !- Schedule Type Limits Name
  ,                                       !- Interpolate to Timestep
  24,                                     !- Hour 1
  0,                                      !- Minute 1
  20;                                     !- Value Until Time 1

OS:Schedule:Ruleset,
  {391cc839-2fe9-47b3-acd2-0c9555135766}, !- Handle
  cooling setpoint,                       !- Name
  {d98f4bd2-12e1-4ef4-9b61-e580b6f87e0c}, !- Schedule Type Limits Name
  {025527d6-376e-45e4-8e32-07a5cb08359b}; !- Default Day Schedule Name

OS:Schedule:Day,
  {025527d6-376e-45e4-8e32-07a5cb08359b}, !- Handle
  cooling setpoint default day,           !- Name
  {d98f4bd2-12e1-4ef4-9b61-e580b6f87e0c}, !- Schedule Type Limits Name
  ,                                       !- Interpolate to Timestep
  24,                                     !- Hour 1
  0,                                      !- Minute 1
  0;                                      !- Value Until Time 1

OS:Schedule:Rule,
  {eb8703bb-3477-4e0f-8310-d53039995032}, !- Handle
  cooling setpoint allday rule,           !- Name
  {391cc839-2fe9-47b3-acd2-0c9555135766}, !- Schedule Ruleset Name
  0,                                      !- Rule Order
  {ba2980bf-f942-4460-a380-8834e2aefca5}, !- Day Schedule Name
  Yes,                                    !- Apply Sunday
  Yes,                                    !- Apply Monday
  Yes,                                    !- Apply Tuesday
  Yes,                                    !- Apply Wednesday
  Yes,                                    !- Apply Thursday
  Yes,                                    !- Apply Friday
  Yes,                                    !- Apply Saturday
  DateRange,                              !- Date Specification Type
  1,                                      !- Start Month
  1,                                      !- Start Day
  12,                                     !- End Month
  31;                                     !- End Day

OS:Schedule:Day,
  {ba2980bf-f942-4460-a380-8834e2aefca5}, !- Handle
  cooling setpoint day,                   !- Name
  {d98f4bd2-12e1-4ef4-9b61-e580b6f87e0c}, !- Schedule Type Limits Name
  ,                                       !- Interpolate to Timestep
  24,                                     !- Hour 1
  0,                                      !- Minute 1
  25.5555555555556;                       !- Value Until Time 1

OS:ThermostatSetpoint:DualSetpoint,
  {5fd5ac9a-defd-4d40-976d-d585d4fe8fe0}, !- Handle
  conditioned space temperature setpoint, !- Name
  {c172bdd4-6764-49d9-ac7d-8f0ada54e748}, !- Heating Setpoint Temperature Schedule Name
  {391cc839-2fe9-47b3-acd2-0c9555135766}, !- Cooling Setpoint Temperature Schedule Name
  0;                                      !- Temperature Difference Between Cutout And Setpoint {deltaC}

OS:ScheduleTypeLimits,
  {d98f4bd2-12e1-4ef4-9b61-e580b6f87e0c}, !- Handle
  Temperature,                            !- Name
  ,                                       !- Lower Limit Value
  ,                                       !- Upper Limit Value
  Continuous,                             !- Numeric Type
  Temperature;                            !- Unit Type

OS:Surface,
  {378b6298-c987-4af8-b8b5-39da0f71b64a}, !- Handle
  Roof1,                                  !- Name
  RoofCeiling,                            !- Surface Type
  {f86e375d-a30c-470b-87a6-d04c765e8cb1}, !- Construction Name
  {4be268de-f008-43ab-87c5-5285770e2532}, !- Space Name
  Outdoors,                               !- Outside Boundary Condition
  ,                                       !- Outside Boundary Condition Object
  SunExposed,                             !- Sun Exposure
  WindExposed,                            !- Wind Exposure
  ,                                       !- View Factor to Ground
  ,                                       !- Number of Vertices
  -26.9347048849634, 58.0557891618865, 2.4384, !- X,Y,Z Vertex 1 {m}
  -26.9347048849634, 46.7895631136661, 8.0715130241102, !- X,Y,Z Vertex 2 {m}
  -14.3386812381136, 46.7895631136661, 8.0715130241102, !- X,Y,Z Vertex 3 {m}
  -14.3386812381136, 58.0557891618865, 2.4384; !- X,Y,Z Vertex 4 {m}

OS:AdditionalProperties,
  {a7b30630-b11b-483f-8952-c48485566b7d}, !- Handle
  {378b6298-c987-4af8-b8b5-39da0f71b64a}, !- Object Name
  Length,                                 !- Feature Name 1
  Double,                                 !- Feature Data Type 1
  41.325536899113608,                     !- Feature Value 1
  Width,                                  !- Feature Name 2
  Double,                                 !- Feature Data Type 2
  41.325536899113601,                     !- Feature Value 2
  Azimuth,                                !- Feature Name 3
  Integer,                                !- Feature Data Type 3
  0,                                      !- Feature Value 3
  Tilt,                                   !- Feature Name 4
  Double,                                 !- Feature Data Type 4
  0.5,                                    !- Feature Value 4
  SurfaceType,                            !- Feature Name 5
  String,                                 !- Feature Data Type 5
  Roof;                                   !- Feature Value 5

OS:ThermalZone,
  {f6ee4487-cefd-4c6b-8d33-aeb8eaa62890}, !- Handle
  attic - vented,                         !- Name
  1,                                      !- Multiplier
  ,                                       !- Ceiling Height {m}
  356.389957095237,                       !- Volume {m3}
  ,                                       !- Floor Area {m2}
  ,                                       !- Zone Inside Convection Algorithm
  ,                                       !- Zone Outside Convection Algorithm
  ,                                       !- Zone Conditioning Equipment List Name
  {f2472394-93f2-40f0-80d9-d94ba38f3827}, !- Zone Air Inlet Port List
  {dfb906ca-25ff-4c09-a93a-e760a8aa3532}, !- Zone Air Exhaust Port List
  {811f5961-1d5f-4efe-bd45-c97339a682b3}, !- Zone Air Node Name
  {eaa86c27-61a9-4f0d-8c4a-44830cdf08e9}, !- Zone Return Air Port List
  ,                                       !- Primary Daylighting Control Name
  ,                                       !- Fraction of Zone Controlled by Primary Daylighting Control
  ,                                       !- Secondary Daylighting Control Name
  ,                                       !- Fraction of Zone Controlled by Secondary Daylighting Control
  ,                                       !- Illuminance Map Name
  ,                                       !- Group Rendering Name
  ,                                       !- Thermostat Name
  No;                                     !- Use Ideal Air Loads

OS:Node,
  {ba1a5f7d-804c-4733-a91d-dee1ff921035}, !- Handle
  Node 2,                                 !- Name
  {811f5961-1d5f-4efe-bd45-c97339a682b3}, !- Inlet Port
  ;                                       !- Outlet Port

OS:Connection,
  {811f5961-1d5f-4efe-bd45-c97339a682b3}, !- Handle
  {f6ee4487-cefd-4c6b-8d33-aeb8eaa62890}, !- Source Object
  11,                                     !- Outlet Port
  {ba1a5f7d-804c-4733-a91d-dee1ff921035}, !- Target Object
  2;                                      !- Inlet Port

OS:PortList,
  {f2472394-93f2-40f0-80d9-d94ba38f3827}, !- Handle
  {f6ee4487-cefd-4c6b-8d33-aeb8eaa62890}; !- HVAC Component

OS:PortList,
  {dfb906ca-25ff-4c09-a93a-e760a8aa3532}, !- Handle
  {f6ee4487-cefd-4c6b-8d33-aeb8eaa62890}; !- HVAC Component

OS:PortList,
  {eaa86c27-61a9-4f0d-8c4a-44830cdf08e9}, !- Handle
  {f6ee4487-cefd-4c6b-8d33-aeb8eaa62890}; !- HVAC Component

OS:Sizing:Zone,
  {42ae9366-169d-4cdf-98af-09bab511d8f2}, !- Handle
  {f6ee4487-cefd-4c6b-8d33-aeb8eaa62890}, !- Zone or ZoneList Name
  SupplyAirTemperature,                   !- Zone Cooling Design Supply Air Temperature Input Method
  14,                                     !- Zone Cooling Design Supply Air Temperature {C}
  11.11,                                  !- Zone Cooling Design Supply Air Temperature Difference {deltaC}
  SupplyAirTemperature,                   !- Zone Heating Design Supply Air Temperature Input Method
  40,                                     !- Zone Heating Design Supply Air Temperature {C}
  11.11,                                  !- Zone Heating Design Supply Air Temperature Difference {deltaC}
  0.0085,                                 !- Zone Cooling Design Supply Air Humidity Ratio {kg-H2O/kg-air}
  0.008,                                  !- Zone Heating Design Supply Air Humidity Ratio {kg-H2O/kg-air}
  ,                                       !- Zone Heating Sizing Factor
  ,                                       !- Zone Cooling Sizing Factor
  DesignDay,                              !- Cooling Design Air Flow Method
  ,                                       !- Cooling Design Air Flow Rate {m3/s}
  ,                                       !- Cooling Minimum Air Flow per Zone Floor Area {m3/s-m2}
  ,                                       !- Cooling Minimum Air Flow {m3/s}
  ,                                       !- Cooling Minimum Air Flow Fraction
  DesignDay,                              !- Heating Design Air Flow Method
  ,                                       !- Heating Design Air Flow Rate {m3/s}
  ,                                       !- Heating Maximum Air Flow per Zone Floor Area {m3/s-m2}
  ,                                       !- Heating Maximum Air Flow {m3/s}
  ,                                       !- Heating Maximum Air Flow Fraction
  No,                                     !- Account for Dedicated Outdoor Air System
  NeutralSupplyAir,                       !- Dedicated Outdoor Air System Control Strategy
  autosize,                               !- Dedicated Outdoor Air Low Setpoint Temperature for Design {C}
  autosize,                               !- Dedicated Outdoor Air High Setpoint Temperature for Design {C}
  Sensible Load Only No Latent Load,      !- Zone Load Sizing Method
  HumidityRatioDifference,                !- Zone Latent Cooling Design Supply Air Humidity Ratio Input Method
  ,                                       !- Zone Dehumidification Design Supply Air Humidity Ratio {kgWater/kgDryAir}
  0.005,                                  !- Zone Cooling Design Supply Air Humidity Ratio Difference {kgWater/kgDryAir}
  HumidityRatioDifference,                !- Zone Latent Heating Design Supply Air Humidity Ratio Input Method
  ,                                       !- Zone Humidification Design Supply Air Humidity Ratio {kgWater/kgDryAir}
  0.005,                                  !- Zone Humidification Design Supply Air Humidity Ratio Difference {kgWater/kgDryAir}
  ,                                       !- Zone Humidistat Dehumidification Set Point Schedule Name
  ,                                       !- Zone Humidistat Humidification Set Point Schedule Name
  ,                                       !- Design Zone Air Distribution Effectiveness in Cooling Mode
  ,                                       !- Design Zone Air Distribution Effectiveness in Heating Mode
  ,                                       !- Design Zone Secondary Recirculation Fraction {dimensionless}
  ,                                       !- Design Minimum Zone Ventilation Efficiency {dimensionless}
  Coincident;                             !- Sizing Option

OS:ZoneHVAC:EquipmentList,
  {71964092-490c-48a0-ab3b-4a6701a0f53f}, !- Handle
  Zone HVAC Equipment List 2,             !- Name
  {f6ee4487-cefd-4c6b-8d33-aeb8eaa62890}; !- Thermal Zone

OS:AdditionalProperties,
  {55bd8199-dec2-4df4-9124-db8b3a36489f}, !- Handle
  {f6ee4487-cefd-4c6b-8d33-aeb8eaa62890}, !- Object Name
  ObjectType,                             !- Feature Name 1
  String,                                 !- Feature Data Type 1
  attic - vented;                         !- Feature Value 1

OS:Space,
  {4be268de-f008-43ab-87c5-5285770e2532}, !- Handle
  attic - vented 1,                       !- Name
  ,                                       !- Space Type Name
  ,                                       !- Default Construction Set Name
  ,                                       !- Default Schedule Set Name
  ,                                       !- Direction of Relative North {deg}
  ,                                       !- X Origin {m}
  ,                                       !- Y Origin {m}
  ,                                       !- Z Origin {m}
  ,                                       !- Building Story Name
  {f6ee4487-cefd-4c6b-8d33-aeb8eaa62890}, !- Thermal Zone Name
  ,                                       !- Part of Total Floor Area
  ,                                       !- Design Specification Outdoor Air Object Name
  ,                                       !- Building Unit Name
  356.389957095237;                       !- Volume {m3}

OS:Material,
  {846bf9d7-f65a-4ae8-82fe-1aa4aedbd45d}, !- Handle
  asphalt or fiberglass shingles,         !- Name
  Rough,                                  !- Roughness
  0.00635,                                !- Thickness {m}
  0.162714,                               !- Conductivity {W/m-K}
  1121.4,                                 !- Density {kg/m3}
  1465.45,                                !- Specific Heat {J/kg-K}
  0.9,                                    !- Thermal Absorptance
  0.85,                                   !- Solar Absorptance