
OS:Version,
  {2487359d-9115-4bb4-9069-ab745fef9384}, !- Handle
  3.10.0;                                 !- Version Identifier

OS:SimulationControl,
  {ecab739f-631e-47dc-b641-08a8bcf2bf27}, !- Handle
  ,                                       !- Do Zone Sizing Calculation
  ,                                       !- Do System Sizing Calculation
  ,                                       !- Do Plant Sizing Calculation
  No;                                     !- Run Simulation for Sizing Periods

OS:Timestep,
  {62300537-deff-4df0-9ade-78ff2b5e28a6}, !- Handle
  1;                                      !- Number of Timesteps per Hour

OS:ShadowCalculation,
  {fdb68ad7-bb6e-40da-920c-2b91fb33b57e}, !- Handle
  PolygonClipping,                        !- Shading Calculation Method
  ,                                       !- Shading Calculation Update Frequency Method
  20,                                     !- Shading Calculation Update Frequency
  200,                                    !- Maximum Figures in Shadow Overlap Calculations
  ,                                       !- Polygon Clipping Algorithm
  512,                                    !- Pixel Counting Resolution
  ,                                       !- Sky Diffuse Modeling Algorithm
  No,                                     !- Output External Shading Calculation Results
  No,                                     !- Disable Self-Shading Within Shading Zone Groups
  No;                                     !- Disable Self-Shading From Shading Zone Groups to Other Zones

OS:SurfaceConvectionAlgorithm:Outside,
  {69168d33-b0c2-4f63-bfbf-4fe7cb3dffbd}, !- Handle
  DOE-2;                                  !- Algorithm

OS:SurfaceConvectionAlgorithm:Inside,
  {695f6928-b68b-48a8-8073-9681cba10794}, !- Handle
  TARP;                                   !- Algorithm

OS:ZoneCapacitanceMultiplier:ResearchSpecial,
  {d8d00a05-011c-49fe-966a-36ffee2b6f64}, !- Handle
  7,                                      !- Temperature Capacity Multiplier
  15,                                     !- Humidity Capacity Multiplier
  ;                                       !- Carbon Dioxide Capacity Multiplier

OS:ConvergenceLimits,
  {49bf8a3f-6d2f-4b30-b49a-aac518d478db}, !- Handle
  0;                                      !- Minimum System Timestep {minutes}

OS:RunPeriod,
  {6dacf077-26f4-4768-8079-7e1d0274f4a2}, !- Handle
  Run Period 1,                           !- Name
  1,                                      !- Begin Month
  1,                                      !- Begin Day of Month
  12,                                     !- End Month
  31,                                     !- End Day of Month
  ,                                       !- Use Weather File Holidays and Special Days
  ,                                       !- Use Weather File Daylight Saving Period
  ,                                       !- Apply Weekend Holiday Rule
  ,                                       !- Use Weather File Rain Indicators
  ,                                       !- Use Weather File Snow Indicators
  ;                                       !- Number of Times Runperiod to be Repeated

OS:PerformancePrecisionTradeoffs,
  {59c418d7-20b3-427b-9971-90ba278cbe16}, !- Handle
  ,                                       !- Use Coil Direct Solutions
  CarrollMRT;                             !- Zone Radiant Exchange Algorithm

OS:WeatherFile,
  {13aaddae-f399-4de7-b172-57f973b14e05}, !- Handle
  Buffalo Niagara Intl Ap,                !- City
  NY,                                     !- State Province Region
  USA,                                    !- Country
  TMY3,                                   !- Data Source
  725280,                                 !- WMO Number
  42.93,                                  !- Latitude {deg}
  -78.73,                                 !- Longitude {deg}
  -5,                                     !- Time Zone {hr}
  215,                                    !- Elevation {m}
  /Users/nmoore/github/urbanopt-example-geojson-project/example_project/weather/USA_NY_Buffalo-Greater.Buffalo.Intl.AP.725280_TMY3.epw, !- Url
  6B50E0FF,                               !- Checksum
  ,                                       !- Start Date Actual Year
  Sunday;                                 !- Start Day of Week

OS:YearDescription,
  {313c39dc-55f1-4a75-96db-18bf4d494151}, !- Handle
  2007,                                   !- Calendar Year
  ,                                       !- Day of Week for Start Day
  ;                                       !- Is Leap Year

OS:Site,
  {0239f155-ee93-4feb-ab5f-e31b04d6666a}, !- Handle
  Buffalo Niagara Intl Ap_NY,             !- Name
  42.93,                                  !- Latitude {deg}
  -78.73,                                 !- Longitude {deg}
  -5,                                     !- Time Zone {hr}
  215,                                    !- Elevation {m}
  Suburbs,                                !- Terrain
  Yes;                                    !- Keep Site Location Information

OS:RunPeriodControl:DaylightSavingTime,
  {426fc0de-5aa6-4ada-8bfa-1562dab47e3b}, !- Handle
  Mar 12,                                 !- Start Date
  Nov 5;                                  !- End Date

OS:Site:GroundTemperature:Shallow,
  {11d212c8-02b8-4412-85d2-d2965575f37d}, !- Handle
  4.30207395723828,                       !- January Surface Ground Temperature {C}
  2.29327249652502,                       !- February Surface Ground Temperature {C}
  2.13240047156047,                       !- March Surface Ground Temperature {C}
  3.08567940719286,                       !- April Surface Ground Temperature {C}
  6.91256312497526,                       !- May Surface Ground Temperature {C}
  10.7216195949507,                       !- June Surface Ground Temperature {C}
  14.0238679822574,                       !- July Surface Ground Temperature {C}
  16.1157611184724,                       !- August Surface Ground Temperature {C}
  16.2934789303462,                       !- September Surface Ground Temperature {C}
  14.5920754632847,                       !- October Surface Ground Temperature {C}
  11.374036348653,                        !- November Surface Ground Temperature {C}
  7.68182621661674;                       !- December Surface Ground Temperature {C}

OS:ThermalZone,
  {d7b466e7-46b6-425b-a84f-d71601dfd289}, !- Handle
  conditioned space,                      !- Name
  1,                                      !- Multiplier
  ,                                       !- Ceiling Height {m}
  692.06373070848,                        !- Volume {m3}
  ,                                       !- Floor Area {m2}
  ,                                       !- Zone Inside Convection Algorithm
  ,                                       !- Zone Outside Convection Algorithm
  ,                                       !- Zone Conditioning Equipment List Name
  {75a01776-f5b9-482e-a64c-00a420b8c076}, !- Zone Air Inlet Port List
  {de1a3cdc-77e4-4481-bacb-175dcc556ffb}, !- Zone Air Exhaust Port List
  {1760846f-16a2-4498-8020-168d8ceb73a8}, !- Zone Air Node Name
  {1b98b8ad-f624-4083-8b5f-49a06df0faa7}, !- Zone Return Air Port List
  ,                                       !- Primary Daylighting Control Name
  ,                                       !- Fraction of Zone Controlled by Primary Daylighting Control
  ,                                       !- Secondary Daylighting Control Name
  ,                                       !- Fraction of Zone Controlled by Secondary Daylighting Control
  ,                                       !- Illuminance Map Name
  ,                                       !- Group Rendering Name
  {0915a456-6dfc-44bc-bec4-43f8347d25e8}, !- Thermostat Name
  No;                                     !- Use Ideal Air Loads

OS:Node,
  {658fb183-d77f-4913-b93e-e18c1bb56bfc}, !- Handle
  Node 1,                                 !- Name
  {1760846f-16a2-4498-8020-168d8ceb73a8}, !- Inlet Port
  ;                                       !- Outlet Port

OS:Connection,
  {1760846f-16a2-4498-8020-168d8ceb73a8}, !- Handle
  {d7b466e7-46b6-425b-a84f-d71601dfd289}, !- Source Object
  11,                                     !- Outlet Port
  {658fb183-d77f-4913-b93e-e18c1bb56bfc}, !- Target Object
  2;                                      !- Inlet Port

OS:PortList,
  {75a01776-f5b9-482e-a64c-00a420b8c076}, !- Handle
  {d7b466e7-46b6-425b-a84f-d71601dfd289}, !- HVAC Component
  {a3a3292c-ae6c-479e-bbc0-7168686e6a8f}; !- Port 1

OS:PortList,
  {de1a3cdc-77e4-4481-bacb-175dcc556ffb}, !- Handle
  {d7b466e7-46b6-425b-a84f-d71601dfd289}; !- HVAC Component

OS:PortList,
  {1b98b8ad-f624-4083-8b5f-49a06df0faa7}, !- Handle
  {d7b466e7-46b6-425b-a84f-d71601dfd289}, !- HVAC Component
  {df230400-5cb1-4c84-aa9d-383c6af787aa}; !- Port 1

OS:Sizing:Zone,
  {9e3007e0-1945-46c2-8c58-6b06b7dd3a35}, !- Handle
  {d7b466e7-46b6-425b-a84f-d71601dfd289}, !- Zone or ZoneList Name
  SupplyAirTemperature,                   !- Zone Cooling Design Supply Air Temperature Input Method
  14,                                     !- Zone Cooling Design Supply Air Temperature {C}
  11.11,                                  !- Zone Cooling Design Supply Air Temperature Difference {deltaC}
  SupplyAirTemperature,                   !- Zone Heating Design Supply Air Temperature Input Method
  40,                                     !- Zone Heating Design Supply Air Temperature {C}
  11.11,                                  !- Zone Heating Design Supply Air Temperature Difference {deltaC}
  0.0085,                                 !- Zone Cooling Design Supply Air Humidity Ratio {kg-H2O/kg-air}
  0.008,                                  !- Zone Heating Design Supply Air Humidity Ratio {kg-H2O/kg-air}
  ,                                       !- Zone Heating Sizing Factor
  ,                                       !- Zone Cooling Sizing Factor
  DesignDay,                              !- Cooling Design Air Flow Method
  ,                                       !- Cooling Design Air Flow Rate {m3/s}
  ,                                       !- Cooling Minimum Air Flow per Zone Floor Area {m3/s-m2}
  ,                                       !- Cooling Minimum Air Flow {m3/s}
  ,                                       !- Cooling Minimum Air Flow Fraction
  DesignDay,                              !- Heating Design Air Flow Method
  ,                                       !- Heating Design Air Flow Rate {m3/s}
  ,                                       !- Heating Maximum Air Flow per Zone Floor Area {m3/s-m2}
  ,                                       !- Heating Maximum Air Flow {m3/s}
  ,                                       !- Heating Maximum Air Flow Fraction
  No,                                     !- Account for Dedicated Outdoor Air System
  NeutralSupplyAir,                       !- Dedicated Outdoor Air System Control Strategy
  autosize,                               !- Dedicated Outdoor Air Low Setpoint Temperature for Design {C}
  autosize,                               !- Dedicated Outdoor Air High Setpoint Temperature for Design {C}
  Sensible Load Only No Latent Load,      !- Zone Load Sizing Method
  HumidityRatioDifference,                !- Zone Latent Cooling Design Supply Air Humidity Ratio Input Method
  ,                                       !- Zone Dehumidification Design Supply Air Humidity Ratio {kgWater/kgDryAir}
  0.005,                                  !- Zone Cooling Design Supply Air Humidity Ratio Difference {kgWater/kgDryAir}
  HumidityRatioDifference,                !- Zone Latent Heating Design Supply Air Humidity Ratio Input Method
  ,                                       !- Zone Humidification Design Supply Air Humidity Ratio {kgWater/kgDryAir}
  0.005,                                  !- Zone Humidification Design Supply Air Humidity Ratio Difference {kgWater/kgDryAir}
  ,                                       !- Zone Humidistat Dehumidification Set Point Schedule Name
  ,                                       !- Zone Humidistat Humidification Set Point Schedule Name
  ,                                       !- Design Zone Air Distribution Effectiveness in Cooling Mode
  ,                                       !- Design Zone Air Distribution Effectiveness in Heating Mode
  ,                                       !- Design Zone Secondary Recirculation Fraction {dimensionless}
  ,                                       !- Design Minimum Zone Ventilation Efficiency {dimensionless}
  Coincident;                             !- Sizing Option

OS:ZoneHVAC:EquipmentList,
  {ae5fbb71-8280-4250-aa21-e34a773e47cd}, !- Handle
  Zone HVAC Equipment List 1,             !- Name
  {d7b466e7-46b6-425b-a84f-d71601dfd289}, !- Thermal Zone
  ,                                       !- Load Distribution Scheme
  {31632c57-8d9a-4603-81cf-ef8433ee5f2e}, !- Zone Equipment 1
  1,                                      !- Zone Equipment Cooling Sequence 1
  1,                                      !- Zone Equipment Heating or No-Load Sequence 1
  {c2b9a19c-9bee-4b4b-a993-9fe87c464356}, !- Zone Equipment Sequential Cooling Fraction Schedule Name 1
  {5c8901c7-7a9c-4edb-9467-85362440dce1}, !- Zone Equipment Sequential Heating Fraction Schedule Name 1
  {620c117e-7cf2-4cc4-ba67-1a0ee3ef8591}, !- Zone Equipment 2
  2,                                      !- Zone Equipment Cooling Sequence 2
  2,                                      !- Zone Equipment Heating or No-Load Sequence 2
  {dca2b0c7-75ae-4f58-9aed-5dbca88d1e81}, !- Zone Equipment Sequential Cooling Fraction Schedule Name 2
  {b7db5330-90a8-4487-b937-5188800c23b4}; !- Zone Equipment Sequential Heating Fraction Schedule Name 2

OS:AdditionalProperties,
  {abeb9009-4cd5-4043-98a9-105631a8e868}, !- Handle
  {d7b466e7-46b6-425b-a84f-d71601dfd289}, !- Object Name
  ObjectType,                             !- Feature Name 1
  String,                                 !- Feature Data Type 1
  conditioned space;                      !- Feature Value 1

OS:Space,
  {8aaa877a-8128-408d-8cbb-4106f954ceca}, !- Handle
  conditioned space 1,                    !- Name
  ,                                       !- Space Type Name
  ,                                       !- Default Construction Set Name
  ,                                       !- Default Schedule Set Name
  ,                                       !- Direction of Relative North {deg}
  ,                                       !- X Origin {m}
  ,                                       !- Y Origin {m}
  ,                                       !- Z Origin {m}
  ,                                       !- Building Story Name
  {d7b466e7-46b6-425b-a84f-d71601dfd289}, !- Thermal Zone Name
  ,                                       !- Part of Total Floor Area
  ,                                       !- Design Specification Outdoor Air Object Name
  ,                                       !- Building Unit Name
  692.06373070848;                        !- Volume {m3}

OS:Schedule:Ruleset,
  {58800da6-449a-4d8c-b809-bbc57025daeb}, !- Handle
  heating setpoint,                       !- Name
  {2aea0cc0-fe0b-43dc-a968-2a8e8ffef2bc}, !- Schedule Type Limits Name
  {ead21150-4f02-4b49-99a0-bdb934e5b02a}; !- Default Day Schedule Name

OS:Schedule:Day,
  {ead21150-4f02-4b49-99a0-bdb934e5b02a}, !- Handle
  heating setpoint default day,           !- Name
  {2aea0cc0-fe0b-43dc-a968-2a8e8ffef2bc}, !- Schedule Type Limits Name
  ,                                       !- Interpolate to Timestep
  24,                                     !- Hour 1
  0,                                      !- Minute 1
  0;                                      !- Value Until Time 1

OS:Schedule:Rule,
  {6efac52b-82dd-40db-aeee-5969d66a070a}, !- Handle
  heating setpoint allday rule,           !- Name
  {58800da6-449a-4d8c-b809-bbc57025daeb}, !- Schedule Ruleset Name
  0,                                      !- Rule Order
  {732cce03-87d6-4d7e-94e5-33f195f00434}, !- Day Schedule Name
  Yes,                                    !- Apply Sunday
  Yes,                                    !- Apply Monday
  Yes,                                    !- Apply Tuesday
  Yes,                                    !- Apply Wednesday
  Yes,                                    !- Apply Thursday
  Yes,                                    !- Apply Friday
  Yes,                                    !- Apply Saturday
  DateRange,                              !- Date Specification Type
  1,                                      !- Start Month
  1,                                      !- Start Day
  12,                                     !- End Month
  31;                                     !- End Day

OS:Schedule:Day,
  {732cce03-87d6-4d7e-94e5-33f195f00434}, !- Handle
  heating setpoint day,                   !- Name
  {2aea0cc0-fe0b-43dc-a968-2a8e8ffef2bc}, !- Schedule Type Limits Name
  ,                                       !- Interpolate to Timestep
  24,                                     !- Hour 1
  0,                                      !- Minute 1
  20;                                     !- Value Until Time 1

OS:Schedule:Ruleset,
  {52b814d8-65f5-4e59-92dc-31a8fc379a67}, !- Handle
  cooling setpoint,                       !- Name
  {2aea0cc0-fe0b-43dc-a968-2a8e8ffef2bc}, !- Schedule Type Limits Name
  {a8932b3e-6b61-4e51-b5a5-870480a3d259}; !- Default Day Schedule Name

OS:Schedule:Day,
  {a8932b3e-6b61-4e51-b5a5-870480a3d259}, !- Handle
  cooling setpoint default day,           !- Name
  {2aea0cc0-fe0b-43dc-a968-2a8e8ffef2bc}, !- Schedule Type Limits Name
  ,                                       !- Interpolate to Timestep
  24,                                     !- Hour 1
  0,                                      !- Minute 1
  0;                                      !- Value Until Time 1

OS:Schedule:Rule,
  {b7ba11c8-ab02-41c0-be71-e69b26cfdf7e}, !- Handle
  cooling setpoint allday rule,           !- Name
  {52b814d8-65f5-4e59-92dc-31a8fc379a67}, !- Schedule Ruleset Name
  0,                                      !- Rule Order
  {917ac25e-abdd-4d79-89da-be3373319115}, !- Day Schedule Name
  Yes,                                    !- Apply Sunday
  Yes,                                    !- Apply Monday
  Yes,                                    !- Apply Tuesday
  Yes,                                    !- Apply Wednesday
  Yes,                                    !- Apply Thursday
  Yes,                                    !- Apply Friday
  Yes,                                    !- Apply Saturday
  DateRange,                              !- Date Specification Type
  1,                                      !- Start Month
  1,                                      !- Start Day
  12,                                     !- End Month
  31;                                     !- End Day

OS:Schedule:Day,
  {917ac25e-abdd-4d79-89da-be3373319115}, !- Handle
  cooling setpoint day,                   !- Name
  {2aea0cc0-fe0b-43dc-a968-2a8e8ffef2bc}, !- Schedule Type Limits Name
  ,                                       !- Interpolate to Timestep
  24,                                     !- Hour 1
  0,                                      !- Minute 1
  25.5555555555556;                       !- Value Until Time 1

OS:ThermostatSetpoint:DualSetpoint,
  {0915a456-6dfc-44bc-bec4-43f8347d25e8}, !- Handle
  conditioned space temperature setpoint, !- Name
  {58800da6-449a-4d8c-b809-bbc57025daeb}, !- Heating Setpoint Temperature Schedule Name
  {52b814d8-65f5-4e59-92dc-31a8fc379a67}, !- Cooling Setpoint Temperature Schedule Name
  0;                                      !- Temperature Difference Between Cutout And Setpoint {deltaC}

OS:ScheduleTypeLimits,
  {2aea0cc0-fe0b-43dc-a968-2a8e8ffef2bc}, !- Handle
  Temperature,                            !- Name
  ,                                       !- Lower Limit Value
  ,                                       !- Upper Limit Value
  Continuous,                             !- Numeric Type
  Temperature;                            !- Unit Type

OS:Surface,
  {f6d1a6f9-e43d-445d-8595-9020ad638cac}, !- Handle
  Roof1,                                  !- Name
  RoofCeiling,                            !- Surface Type
  {ee6573ad-b40a-4976-90eb-f1b7b1229bda}, !- Construction Name
  {0153228d-3c0e-4cac-a4c7-f5f8b595c368}, !- Space Name
  Outdoors,                               !- Outside Boundary Condition
  ,                                       !- Outside Boundary Condition Object
  SunExposed,                             !- Sun Exposure
  WindExposed,                            !- Wind Exposure
  ,                                       !- View Factor to Ground
  ,                                       !- Number of Vertices
  -26.9347048849634, 58.0557891618865, 2.4384, !- X,Y,Z Vertex 1 {m}
  -26.9347048849634, 46.7895631136661, 8.0715130241102, !- X,Y,Z Vertex 2 {m}
  -14.3386812381136, 46.7895631136661, 8.0715130241102, !- X,Y,Z Vertex 3 {m}
  -14.3386812381136, 58.0557891618865, 2.4384; !- X,Y,Z Vertex 4 {m}

OS:AdditionalProperties,
  {44a3e665-cd13-41aa-b80e-46e116818c29}, !- Handle
  {f6d1a6f9-e43d-445d-8595-9020ad638cac}, !- Object Name
  Length,                                 !- Feature Name 1
  Double,                                 !- Feature Data Type 1
  41.325536899113608,                     !- Feature Value 1
  Width,                                  !- Feature Name 2
  Double,                                 !- Feature Data Type 2
  41.325536899113601,                     !- Feature Value 2
  Azimuth,                                !- Feature Name 3
  Integer,                                !- Feature Data Type 3
  0,                                      !- Feature Value 3
  Tilt,                                   !- Feature Name 4
  Double,                                 !- Feature Data Type 4
  0.5,                                    !- Feature Value 4
  SurfaceType,                            !- Feature Name 5
  String,                                 !- Feature Data Type 5
  Roof;                                   !- Feature Value 5

OS:ThermalZone,
  {a23b3d58-a469-4b40-84e6-03e26440ce6c}, !- Handle
  attic - vented,                         !- Name
  1,                                      !- Multiplier
  ,                                       !- Ceiling Height {m}
  356.390921899745,                       !- Volume {m3}
  ,                                       !- Floor Area {m2}
  ,                                       !- Zone Inside Convection Algorithm
  ,                                       !- Zone Outside Convection Algorithm
  ,                                       !- Zone Conditioning Equipment List Name
  {4a827595-3641-4eac-bda5-66ab6aa042f5}, !- Zone Air Inlet Port List
  {16688bb6-9af3-4830-8544-3cce6d7d4f1e}, !- Zone Air Exhaust Port List
  {e90b9337-d0ea-4a54-be2a-a118cec308f9}, !- Zone Air Node Name
  {5639940c-a753-4d84-a57d-c90920b0bc6b}, !- Zone Return Air Port List
  ,                                       !- Primary Daylighting Control Name
  ,                                       !- Fraction of Zone Controlled by Primary Daylighting Control
  ,                                       !- Secondary Daylighting Control Name
  ,                                       !- Fraction of Zone Controlled by Secondary Daylighting Control
  ,                                       !- Illuminance Map Name
  ,                                       !- Group Rendering Name
  ,                                       !- Thermostat Name
  No;                                     !- Use Ideal Air Loads

OS:Node,
  {ead43606-2f88-4758-ae77-1e63d91296c0}, !- Handle
  Node 2,                                 !- Name
  {e90b9337-d0ea-4a54-be2a-a118cec308f9}, !- Inlet Port
  ;                                       !- Outlet Port

OS:Connection,
  {e90b9337-d0ea-4a54-be2a-a118cec308f9}, !- Handle
  {a23b3d58-a469-4b40-84e6-03e26440ce6c}, !- Source Object
  11,                                     !- Outlet Port
  {ead43606-2f88-4758-ae77-1e63d91296c0}, !- Target Object
  2;                                      !- Inlet Port

OS:PortList,
  {4a827595-3641-4eac-bda5-66ab6aa042f5}, !- Handle
  {a23b3d58-a469-4b40-84e6-03e26440ce6c}; !- HVAC Component

OS:PortList,
  {16688bb6-9af3-4830-8544-3cce6d7d4f1e}, !- Handle
  {a23b3d58-a469-4b40-84e6-03e26440ce6c}; !- HVAC Component

OS:PortList,
  {5639940c-a753-4d84-a57d-c90920b0bc6b}, !- Handle
  {a23b3d58-a469-4b40-84e6-03e26440ce6c}; !- HVAC Component

OS:Sizing:Zone,
  {c7869da2-26f4-43a7-b8e6-89608e09f3df}, !- Handle
  {a23b3d58-a469-4b40-84e6-03e26440ce6c}, !- Zone or ZoneList Name
  SupplyAirTemperature,                   !- Zone Cooling Design Supply Air Temperature Input Method
  14,                                     !- Zone Cooling Design Supply Air Temperature {C}
  11.11,                                  !- Zone Cooling Design Supply Air Temperature Difference {deltaC}
  SupplyAirTemperature,                   !- Zone Heating Design Supply Air Temperature Input Method
  40,                                     !- Zone Heating Design Supply Air Temperature {C}
  11.11,                                  !- Zone Heating Design Supply Air Temperature Difference {deltaC}
  0.0085,                                 !- Zone Cooling Design Supply Air Humidity Ratio {kg-H2O/kg-air}
  0.008,                                  !- Zone Heating Design Supply Air Humidity Ratio {kg-H2O/kg-air}
  ,                                       !- Zone Heating Sizing Factor
  ,                                       !- Zone Cooling Sizing Factor
  DesignDay,                              !- Cooling Design Air Flow Method
  ,                                       !- Cooling Design Air Flow Rate {m3/s}
  ,                                       !- Cooling Minimum Air Flow per Zone Floor Area {m3/s-m2}
  ,                                       !- Cooling Minimum Air Flow {m3/s}
  ,                                       !- Cooling Minimum Air Flow Fraction
  DesignDay,                              !- Heating Design Air Flow Method
  ,                                       !- Heating Design Air Flow Rate {m3/s}
  ,                                       !- Heating Maximum Air Flow per Zone Floor Area {m3/s-m2}
  ,                                       !- Heating Maximum Air Flow {m3/s}
  ,                                       !- Heating Maximum Air Flow Fraction
  No,                                     !- Account for Dedicated Outdoor Air System
  NeutralSupplyAir,                       !- Dedicated Outdoor Air System Control Strategy
  autosize,                               !- Dedicated Outdoor Air Low Setpoint Temperature for Design {C}
  autosize,                               !- Dedicated Outdoor Air High Setpoint Temperature for Design {C}
  Sensible Load Only No Latent Load,      !- Zone Load Sizing Method
  HumidityRatioDifference,                !- Zone Latent Cooling Design Supply Air Humidity Ratio Input Method
  ,                                       !- Zone Dehumidification Design Supply Air Humidity Ratio {kgWater/kgDryAir}
  0.005,                                  !- Zone Cooling Design Supply Air Humidity Ratio Difference {kgWater/kgDryAir}
  HumidityRatioDifference,                !- Zone Latent Heating Design Supply Air Humidity Ratio Input Method
  ,                                       !- Zone Humidification Design Supply Air Humidity Ratio {kgWater/kgDryAir}
  0.005,                                  !- Zone Humidification Design Supply Air Humidity Ratio Difference {kgWater/kgDryAir}
  ,                                       !- Zone Humidistat Dehumidification Set Point Schedule Name
  ,                                       !- Zone Humidistat Humidification Set Point Schedule Name
  ,                                       !- Design Zone Air Distribution Effectiveness in Cooling Mode
  ,                                       !- Design Zone Air Distribution Effectiveness in Heating Mode
  ,                                       !- Design Zone Secondary Recirculation Fraction {dimensionless}
  ,                                       !- Design Minimum Zone Ventilation Efficiency {dimensionless}
  Coincident;                             !- Sizing Option

OS:ZoneHVAC:EquipmentList,
  {f135d8de-f979-45d1-8009-e6c4c232cad4}, !- Handle
  Zone HVAC Equipment List 2,             !- Name
  {a23b3d58-a469-4b40-84e6-03e26440ce6c}; !- Thermal Zone

OS:AdditionalProperties,
  {b8ead52e-54d8-46b4-a751-e15dc703f210}, !- Handle
  {a23b3d58-a469-4b40-84e6-03e26440ce6c}, !- Object Name
  ObjectType,                             !- Feature Name 1
  String,                                 !- Feature Data Type 1
  attic - vented;                         !- Feature Value 1

OS:Space,
  {0153228d-3c0e-4cac-a4c7-f5f8b595c368}, !- Handle
  attic - vented 1,                       !- Name
  ,                                       !- Space Type Name
  ,                                       !- Default Construction Set Name
  ,                                       !- Default Schedule Set Name
  ,                                       !- Direction of Relative North {deg}
  ,                                       !- X Origin {m}
  ,                                       !- Y Origin {m}
  ,                                       !- Z Origin {m}
  ,                                       !- Building Story Name
  {a23b3d58-a469-4b40-84e6-03e26440ce6c}, !- Thermal Zone Name
  ,                                       !- Part of Total Floor Area
  ,                                       !- Design Specification Outdoor Air Object Name
  ,                                       !- Building Unit Name
  356.390921899745;                       !- Volume {m3}

OS:Material,
  {2741bf85-bafd-48ff-aa86-205da8ad18a8}, !- Handle
  asphalt or fiberglass shingles,         !- Name