
OS:Version,
  {913e64f1-b3a2-4352-bd0a-22fe848495d3}, !- Handle
  3.9.0;                                  !- Version Identifier

OS:SimulationControl,
  {4614a713-b0ee-4a42-8ef4-bb2505376b63}, !- Handle
  ,                                       !- Do Zone Sizing Calculation
  ,                                       !- Do System Sizing Calculation
  ,                                       !- Do Plant Sizing Calculation
  No;                                     !- Run Simulation for Sizing Periods

OS:Timestep,
  {b468b927-2526-4076-9545-769ab490624f}, !- Handle
  1;                                      !- Number of Timesteps per Hour

OS:ShadowCalculation,
  {cb793987-0e6d-44b5-a19b-a4f1b6182a25}, !- Handle
  PolygonClipping,                        !- Shading Calculation Method
  ,                                       !- Shading Calculation Update Frequency Method
  20,                                     !- Shading Calculation Update Frequency
  200,                                    !- Maximum Figures in Shadow Overlap Calculations
  ,                                       !- Polygon Clipping Algorithm
  512,                                    !- Pixel Counting Resolution
  ,                                       !- Sky Diffuse Modeling Algorithm
  No,                                     !- Output External Shading Calculation Results
  No,                                     !- Disable Self-Shading Within Shading Zone Groups
  No;                                     !- Disable Self-Shading From Shading Zone Groups to Other Zones

OS:SurfaceConvectionAlgorithm:Outside,
  {a2a8694b-a3b4-4f01-8e4e-9256c4a660b5}, !- Handle
  DOE-2;                                  !- Algorithm

OS:SurfaceConvectionAlgorithm:Inside,
  {282a4ab0-0f48-48fa-887b-4f441a1284c0}, !- Handle
  TARP;                                   !- Algorithm

OS:ZoneCapacitanceMultiplier:ResearchSpecial,
  {ac617d41-b9d3-4ad1-8014-7de2c97bc912}, !- Handle
  7,                                      !- Temperature Capacity Multiplier
  15,                                     !- Humidity Capacity Multiplier
  ;                                       !- Carbon Dioxide Capacity Multiplier

OS:ConvergenceLimits,
  {d9897a8c-f6e9-41fb-811e-ad40dc6e4f8b}, !- Handle
  0;                                      !- Minimum System Timestep {minutes}

OS:RunPeriod,
  {c701da0d-3a3f-451f-80a9-6fcf6301b0ef}, !- Handle
  Run Period 1,                           !- Name
  1,                                      !- Begin Month
  1,                                      !- Begin Day of Month
  12,                                     !- End Month
  31,                                     !- End Day of Month
  ,                                       !- Use Weather File Holidays and Special Days
  ,                                       !- Use Weather File Daylight Saving Period
  ,                                       !- Apply Weekend Holiday Rule
  ,                                       !- Use Weather File Rain Indicators
  ,                                       !- Use Weather File Snow Indicators
  ;                                       !- Number of Times Runperiod to be Repeated

OS:PerformancePrecisionTradeoffs,
  {8be4a568-b568-429e-b08c-f9b1e159505f}, !- Handle
  ,                                       !- Use Coil Direct Solutions
  CarrollMRT;                             !- Zone Radiant Exchange Algorithm

OS:WeatherFile,
  {f0bc9789-723e-44af-bb80-bb5237d5e5b3}, !- Handle
  Buffalo Niagara Intl Ap,                !- City
  NY,                                     !- State Province Region
  USA,                                    !- Country
  TMY3,                                   !- Data Source
  725280,                                 !- WMO Number
  42.93,                                  !- Latitude {deg}
  -78.73,                                 !- Longitude {deg}
  -5,                                     !- Time Zone {hr}
  215,                                    !- Elevation {m}
  /Users/nmoore/github/urbanopt-example-geojson-project/example_project/weather/USA_NY_Buffalo-Greater.Buffalo.Intl.AP.725280_TMY3.epw, !- Url
  6B50E0FF,                               !- Checksum
  ,                                       !- Start Date Actual Year
  Sunday;                                 !- Start Day of Week

OS:YearDescription,
  {efab38c3-04d9-47c5-9e03-749223509673}, !- Handle
  2007,                                   !- Calendar Year
  ,                                       !- Day of Week for Start Day
  ;                                       !- Is Leap Year

OS:Site,
  {afd16374-eacf-4d8d-9843-a7dc95d7ced4}, !- Handle
  Buffalo Niagara Intl Ap_NY,             !- Name
  42.93,                                  !- Latitude {deg}
  -78.73,                                 !- Longitude {deg}
  -5,                                     !- Time Zone {hr}
  215,                                    !- Elevation {m}
  Suburbs,                                !- Terrain
  Yes;                                    !- Keep Site Location Information

OS:RunPeriodControl:DaylightSavingTime,
  {396a5b0f-8c0f-4acf-8250-90f6ac60339b}, !- Handle
  Mar 12,                                 !- Start Date
  Nov 5;                                  !- End Date

OS:Site:GroundTemperature:Shallow,
  {e5cccf67-1533-46bb-8f08-01dc450a915d}, !- Handle
  4.30207395723828,                       !- January Surface Ground Temperature {C}
  2.29327249652502,                       !- February Surface Ground Temperature {C}
  2.13240047156047,                       !- March Surface Ground Temperature {C}
  3.08567940719286,                       !- April Surface Ground Temperature {C}
  6.91256312497526,                       !- May Surface Ground Temperature {C}
  10.7216195949507,                       !- June Surface Ground Temperature {C}
  14.0238679822574,                       !- July Surface Ground Temperature {C}
  16.1157611184724,                       !- August Surface Ground Temperature {C}
  16.2934789303462,                       !- September Surface Ground Temperature {C}
  14.5920754632847,                       !- October Surface Ground Temperature {C}
  11.374036348653,                        !- November Surface Ground Temperature {C}
  7.68182621661674;                       !- December Surface Ground Temperature {C}

OS:ThermalZone,
  {79aaf2ee-f49d-4965-a4bc-bc3d1a495c65}, !- Handle
  conditioned space,                      !- Name
  1,                                      !- Multiplier
  ,                                       !- Ceiling Height {m}
  692.06373070848,                        !- Volume {m3}
  ,                                       !- Floor Area {m2}
  ,                                       !- Zone Inside Convection Algorithm
  ,                                       !- Zone Outside Convection Algorithm
  ,                                       !- Zone Conditioning Equipment List Name
  {601c46d7-ad9c-4556-934d-dc6d13815b87}, !- Zone Air Inlet Port List
  {e678e9e3-ad62-438c-90d7-be632eae0508}, !- Zone Air Exhaust Port List
  {49fa5112-fc7b-4a69-9974-0b170af78c7b}, !- Zone Air Node Name
  {c5542348-a047-40c3-b8af-5e132bc36b47}, !- Zone Return Air Port List
  ,                                       !- Primary Daylighting Control Name
  ,                                       !- Fraction of Zone Controlled by Primary Daylighting Control
  ,                                       !- Secondary Daylighting Control Name
  ,                                       !- Fraction of Zone Controlled by Secondary Daylighting Control
  ,                                       !- Illuminance Map Name
  ,                                       !- Group Rendering Name
  {0c485647-ee74-41c3-873d-f74e7232a963}, !- Thermostat Name
  No;                                     !- Use Ideal Air Loads

OS:Node,
  {339de531-bba2-48c7-bd2d-314fd7b2d99d}, !- Handle
  Node 1,                                 !- Name
  {49fa5112-fc7b-4a69-9974-0b170af78c7b}, !- Inlet Port
  ;                                       !- Outlet Port

OS:Connection,
  {49fa5112-fc7b-4a69-9974-0b170af78c7b}, !- Handle
  {79aaf2ee-f49d-4965-a4bc-bc3d1a495c65}, !- Source Object
  11,                                     !- Outlet Port
  {339de531-bba2-48c7-bd2d-314fd7b2d99d}, !- Target Object
  2;                                      !- Inlet Port

OS:PortList,
  {601c46d7-ad9c-4556-934d-dc6d13815b87}, !- Handle
  {79aaf2ee-f49d-4965-a4bc-bc3d1a495c65}, !- HVAC Component
  {73c3619a-9428-4c65-8b41-ae3390406174}; !- Port 1

OS:PortList,
  {e678e9e3-ad62-438c-90d7-be632eae0508}, !- Handle
  {79aaf2ee-f49d-4965-a4bc-bc3d1a495c65}; !- HVAC Component

OS:PortList,
  {c5542348-a047-40c3-b8af-5e132bc36b47}, !- Handle
  {79aaf2ee-f49d-4965-a4bc-bc3d1a495c65}, !- HVAC Component
  {17d53cbc-9f8e-4922-8dbe-ab9860632efe}; !- Port 1

OS:Sizing:Zone,
  {29d59ae3-26a6-42ee-81d8-c92a6c5ac699}, !- Handle
  {79aaf2ee-f49d-4965-a4bc-bc3d1a495c65}, !- Zone or ZoneList Name
  SupplyAirTemperature,                   !- Zone Cooling Design Supply Air Temperature Input Method
  14,                                     !- Zone Cooling Design Supply Air Temperature {C}
  11.11,                                  !- Zone Cooling Design Supply Air Temperature Difference {deltaC}
  SupplyAirTemperature,                   !- Zone Heating Design Supply Air Temperature Input Method
  40,                                     !- Zone Heating Design Supply Air Temperature {C}
  11.11,                                  !- Zone Heating Design Supply Air Temperature Difference {deltaC}
  0.0085,                                 !- Zone Cooling Design Supply Air Humidity Ratio {kg-H2O/kg-air}
  0.008,                                  !- Zone Heating Design Supply Air Humidity Ratio {kg-H2O/kg-air}
  ,                                       !- Zone Heating Sizing Factor
  ,                                       !- Zone Cooling Sizing Factor
  DesignDay,                              !- Cooling Design Air Flow Method
  ,                                       !- Cooling Design Air Flow Rate {m3/s}
  ,                                       !- Cooling Minimum Air Flow per Zone Floor Area {m3/s-m2}
  ,                                       !- Cooling Minimum Air Flow {m3/s}
  ,                                       !- Cooling Minimum Air Flow Fraction
  DesignDay,                              !- Heating Design Air Flow Method
  ,                                       !- Heating Design Air Flow Rate {m3/s}
  ,                                       !- Heating Maximum Air Flow per Zone Floor Area {m3/s-m2}
  ,                                       !- Heating Maximum Air Flow {m3/s}
  ,                                       !- Heating Maximum Air Flow Fraction
  No,                                     !- Account for Dedicated Outdoor Air System
  NeutralSupplyAir,                       !- Dedicated Outdoor Air System Control Strategy
  autosize,                               !- Dedicated Outdoor Air Low Setpoint Temperature for Design {C}
  autosize,                               !- Dedicated Outdoor Air High Setpoint Temperature for Design {C}
  Sensible Load Only No Latent Load,      !- Zone Load Sizing Method
  HumidityRatioDifference,                !- Zone Latent Cooling Design Supply Air Humidity Ratio Input Method
  ,                                       !- Zone Dehumidification Design Supply Air Humidity Ratio {kgWater/kgDryAir}
  0.005,                                  !- Zone Cooling Design Supply Air Humidity Ratio Difference {kgWater/kgDryAir}
  HumidityRatioDifference,                !- Zone Latent Heating Design Supply Air Humidity Ratio Input Method
  ,                                       !- Zone Humidification Design Supply Air Humidity Ratio {kgWater/kgDryAir}
  0.005,                                  !- Zone Humidification Design Supply Air Humidity Ratio Difference {kgWater/kgDryAir}
  ,                                       !- Zone Humidistat Dehumidification Set Point Schedule Name
  ,                                       !- Zone Humidistat Humidification Set Point Schedule Name
  ,                                       !- Design Zone Air Distribution Effectiveness in Cooling Mode
  ,                                       !- Design Zone Air Distribution Effectiveness in Heating Mode
  ,                                       !- Design Zone Secondary Recirculation Fraction {dimensionless}
  ,                                       !- Design Minimum Zone Ventilation Efficiency {dimensionless}
  Coincident;                             !- Sizing Option

OS:ZoneHVAC:EquipmentList,
  {36092742-66ca-49b7-9b80-7c846477f8c7}, !- Handle
  Zone HVAC Equipment List 1,             !- Name
  {79aaf2ee-f49d-4965-a4bc-bc3d1a495c65}, !- Thermal Zone
  ,                                       !- Load Distribution Scheme
  {edafdc38-fbfe-465c-a37f-1372791cdff4}, !- Zone Equipment 1
  1,                                      !- Zone Equipment Cooling Sequence 1
  1,                                      !- Zone Equipment Heating or No-Load Sequence 1
  {c1d02ea9-73b4-49b3-9baf-1db7069f4710}, !- Zone Equipment Sequential Cooling Fraction Schedule Name 1
  {a3325934-c2dc-4088-86ad-9a9a0244e656}, !- Zone Equipment Sequential Heating Fraction Schedule Name 1
  {06ed9e70-095e-4096-80d7-68369617da53}, !- Zone Equipment 2
  2,                                      !- Zone Equipment Cooling Sequence 2
  2,                                      !- Zone Equipment Heating or No-Load Sequence 2
  {41a955dd-4481-4e66-8307-0e5140e4a6c6}, !- Zone Equipment Sequential Cooling Fraction Schedule Name 2
  {4ee7b52b-81ad-4fb8-92dc-e5f3b32ddd51}; !- Zone Equipment Sequential Heating Fraction Schedule Name 2

OS:AdditionalProperties,
  {9c61eb49-b33e-44ad-aaf1-28bffbc0554b}, !- Handle
  {79aaf2ee-f49d-4965-a4bc-bc3d1a495c65}, !- Object Name
  ObjectType,                             !- Feature Name 1
  String,                                 !- Feature Data Type 1
  conditioned space;                      !- Feature Value 1

OS:Space,
  {ebe1ffd5-5517-4a32-a5a4-f33b23a6d5fb}, !- Handle
  conditioned space 1,                    !- Name
  ,                                       !- Space Type Name
  ,                                       !- Default Construction Set Name
  ,                                       !- Default Schedule Set Name
  ,                                       !- Direction of Relative North {deg}
  ,                                       !- X Origin {m}
  ,                                       !- Y Origin {m}
  ,                                       !- Z Origin {m}
  ,                                       !- Building Story Name
  {79aaf2ee-f49d-4965-a4bc-bc3d1a495c65}, !- Thermal Zone Name
  ,                                       !- Part of Total Floor Area
  ,                                       !- Design Specification Outdoor Air Object Name
  ,                                       !- Building Unit Name
  692.06373070848;                        !- Volume {m3}

OS:Schedule:Ruleset,
  {ef84ca6e-2252-45cb-96c9-ea20e47dde57}, !- Handle
  heating setpoint,                       !- Name
  {3450ee38-5fbb-465b-9f82-705677bf3e18}, !- Schedule Type Limits Name
  {29e56c72-cb79-4304-97c7-4ad8c3ed688d}; !- Default Day Schedule Name

OS:Schedule:Day,
  {29e56c72-cb79-4304-97c7-4ad8c3ed688d}, !- Handle
  heating setpoint default day,           !- Name
  {3450ee38-5fbb-465b-9f82-705677bf3e18}, !- Schedule Type Limits Name
  ,                                       !- Interpolate to Timestep
  24,                                     !- Hour 1
  0,                                      !- Minute 1
  0;                                      !- Value Until Time 1

OS:Schedule:Rule,
  {915e8ef8-b5da-4ef0-8678-bab5bc2bae87}, !- Handle
  heating setpoint allday rule,           !- Name
  {ef84ca6e-2252-45cb-96c9-ea20e47dde57}, !- Schedule Ruleset Name
  0,                                      !- Rule Order
  {d76a00c4-53aa-49d8-843c-7d11421084ea}, !- Day Schedule Name
  Yes,                                    !- Apply Sunday
  Yes,                                    !- Apply Monday
  Yes,                                    !- Apply Tuesday
  Yes,                                    !- Apply Wednesday
  Yes,                                    !- Apply Thursday
  Yes,                                    !- Apply Friday
  Yes,                                    !- Apply Saturday
  DateRange,                              !- Date Specification Type
  1,                                      !- Start Month
  1,                                      !- Start Day
  12,                                     !- End Month
  31;                                     !- End Day

OS:Schedule:Day,
  {d76a00c4-53aa-49d8-843c-7d11421084ea}, !- Handle
  heating setpoint day,                   !- Name
  {3450ee38-5fbb-465b-9f82-705677bf3e18}, !- Schedule Type Limits Name
  ,                                       !- Interpolate to Timestep
  24,                                     !- Hour 1
  0,                                      !- Minute 1
  20;                                     !- Value Until Time 1

OS:Schedule:Ruleset,
  {a3db85e0-8575-4bbd-a262-fc08e8e1f671}, !- Handle
  cooling setpoint,                       !- Name
  {3450ee38-5fbb-465b-9f82-705677bf3e18}, !- Schedule Type Limits Name
  {b55f857d-9cf7-4b04-a827-29dd74fb4bc9}; !- Default Day Schedule Name

OS:Schedule:Day,
  {b55f857d-9cf7-4b04-a827-29dd74fb4bc9}, !- Handle
  cooling setpoint default day,           !- Name
  {3450ee38-5fbb-465b-9f82-705677bf3e18}, !- Schedule Type Limits Name
  ,                                       !- Interpolate to Timestep
  24,                                     !- Hour 1
  0,                                      !- Minute 1
  0;                                      !- Value Until Time 1

OS:Schedule:Rule,
  {2239cae9-fb59-4378-8a4e-d5cd0ad9bc4e}, !- Handle
  cooling setpoint allday rule,           !- Name
  {a3db85e0-8575-4bbd-a262-fc08e8e1f671}, !- Schedule Ruleset Name
  0,                                      !- Rule Order
  {f4790508-ad9b-41a3-9761-18218544cc46}, !- Day Schedule Name
  Yes,                                    !- Apply Sunday
  Yes,                                    !- Apply Monday
  Yes,                                    !- Apply Tuesday
  Yes,                                    !- Apply Wednesday
  Yes,                                    !- Apply Thursday
  Yes,                                    !- Apply Friday
  Yes,                                    !- Apply Saturday
  DateRange,                              !- Date Specification Type
  1,                                      !- Start Month
  1,                                      !- Start Day
  12,                                     !- End Month
  31;                                     !- End Day

OS:Schedule:Day,
  {f4790508-ad9b-41a3-9761-18218544cc46}, !- Handle
  cooling setpoint day,                   !- Name
  {3450ee38-5fbb-465b-9f82-705677bf3e18}, !- Schedule Type Limits Name
  ,                                       !- Interpolate to Timestep
  24,                                     !- Hour 1
  0,                                      !- Minute 1
  25.5555555555556;                       !- Value Until Time 1

OS:ThermostatSetpoint:DualSetpoint,
  {0c485647-ee74-41c3-873d-f74e7232a963}, !- Handle
  conditioned space temperature setpoint, !- Name
  {ef84ca6e-2252-45cb-96c9-ea20e47dde57}, !- Heating Setpoint Temperature Schedule Name
  {a3db85e0-8575-4bbd-a262-fc08e8e1f671}, !- Cooling Setpoint Temperature Schedule Name
  0;                                      !- Temperature Difference Between Cutout And Setpoint {deltaC}

OS:ScheduleTypeLimits,
  {3450ee38-5fbb-465b-9f82-705677bf3e18}, !- Handle
  Temperature,                            !- Name
  ,                                       !- Lower Limit Value
  ,                                       !- Upper Limit Value
  Continuous,                             !- Numeric Type
  Temperature;                            !- Unit Type

OS:Surface,
  {1757b454-cc61-4dcf-8013-054fcdd56e58}, !- Handle
  Roof1,                                  !- Name
  RoofCeiling,                            !- Surface Type
  {d89250cf-99d6-4bfe-b56f-163eea6c169e}, !- Construction Name
  {c83e3647-5aea-40b6-ba32-307cc2b42e04}, !- Space Name
  Outdoors,                               !- Outside Boundary Condition
  ,                                       !- Outside Boundary Condition Object
  SunExposed,                             !- Sun Exposure
  WindExposed,                            !- Wind Exposure
  ,                                       !- View Factor to Ground
  ,                                       !- Number of Vertices
  -26.9347048849634, 58.0557891618865, 2.4384, !- X,Y,Z Vertex 1 {m}
  -26.9347048849634, 46.7895631136661, 8.0715130241102, !- X,Y,Z Vertex 2 {m}
  -14.3386812381136, 46.7895631136661, 8.0715130241102, !- X,Y,Z Vertex 3 {m}
  -14.3386812381136, 58.0557891618865, 2.4384; !- X,Y,Z Vertex 4 {m}

OS:AdditionalProperties,
  {144453bf-7c63-460e-abf0-f46344f3d912}, !- Handle
  {1757b454-cc61-4dcf-8013-054fcdd56e58}, !- Object Name
  Length,                                 !- Feature Name 1
  Double,                                 !- Feature Data Type 1
  41.325536899113608,                     !- Feature Value 1
  Width,                                  !- Feature Name 2
  Double,                                 !- Feature Data Type 2
  41.325536899113601,                     !- Feature Value 2
  Azimuth,                                !- Feature Name 3
  Integer,                                !- Feature Data Type 3
  0,                                      !- Feature Value 3
  Tilt,                                   !- Feature Name 4
  Double,                                 !- Feature Data Type 4
  0.5,                                    !- Feature Value 4
  SurfaceType,                            !- Feature Name 5
  String,                                 !- Feature Data Type 5
  Roof;                                   !- Feature Value 5

OS:ThermalZone,
  {8bdfcc1e-6887-48e8-a5c9-532d9631e555}, !- Handle
  attic - vented,                         !- Name
  1,                                      !- Multiplier
  ,                                       !- Ceiling Height {m}
  356.389957095237,                       !- Volume {m3}
  ,                                       !- Floor Area {m2}
  ,                                       !- Zone Inside Convection Algorithm
  ,                                       !- Zone Outside Convection Algorithm
  ,                                       !- Zone Conditioning Equipment List Name
  {97e48a93-7539-4666-ad64-b6b85f2a3a9d}, !- Zone Air Inlet Port List
  {73730357-cb7b-43ac-bf79-5cb7eb4eb68b}, !- Zone Air Exhaust Port List
  {af7ce21a-ff61-4f59-adc7-04cc199364f0}, !- Zone Air Node Name
  {811a808a-50d3-408e-97b7-d0c746d08fd0}, !- Zone Return Air Port List
  ,                                       !- Primary Daylighting Control Name
  ,                                       !- Fraction of Zone Controlled by Primary Daylighting Control
  ,                                       !- Secondary Daylighting Control Name
  ,                                       !- Fraction of Zone Controlled by Secondary Daylighting Control
  ,                                       !- Illuminance Map Name
  ,                                       !- Group Rendering Name
  ,                                       !- Thermostat Name
  No;                                     !- Use Ideal Air Loads

OS:Node,
  {4ef6e0eb-4c37-4d01-8d2e-f4ff38c221ee}, !- Handle
  Node 2,                                 !- Name
  {af7ce21a-ff61-4f59-adc7-04cc199364f0}, !- Inlet Port
  ;                                       !- Outlet Port

OS:Connection,
  {af7ce21a-ff61-4f59-adc7-04cc199364f0}, !- Handle
  {8bdfcc1e-6887-48e8-a5c9-532d9631e555}, !- Source Object
  11,                                     !- Outlet Port
  {4ef6e0eb-4c37-4d01-8d2e-f4ff38c221ee}, !- Target Object
  2;                                      !- Inlet Port

OS:PortList,
  {97e48a93-7539-4666-ad64-b6b85f2a3a9d}, !- Handle
  {8bdfcc1e-6887-48e8-a5c9-532d9631e555}; !- HVAC Component

OS:PortList,
  {73730357-cb7b-43ac-bf79-5cb7eb4eb68b}, !- Handle
  {8bdfcc1e-6887-48e8-a5c9-532d9631e555}; !- HVAC Component

OS:PortList,
  {811a808a-50d3-408e-97b7-d0c746d08fd0}, !- Handle
  {8bdfcc1e-6887-48e8-a5c9-532d9631e555}; !- HVAC Component

OS:Sizing:Zone,
  {4ac3736c-2380-439c-a571-1ebb7c4ca083}, !- Handle
  {8bdfcc1e-6887-48e8-a5c9-532d9631e555}, !- Zone or ZoneList Name
  SupplyAirTemperature,                   !- Zone Cooling Design Supply Air Temperature Input Method
  14,                                     !- Zone Cooling Design Supply Air Temperature {C}
  11.11,                                  !- Zone Cooling Design Supply Air Temperature Difference {deltaC}
  SupplyAirTemperature,                   !- Zone Heating Design Supply Air Temperature Input Method
  40,                                     !- Zone Heating Design Supply Air Temperature {C}
  11.11,                                  !- Zone Heating Design Supply Air Temperature Difference {deltaC}
  0.0085,                                 !- Zone Cooling Design Supply Air Humidity Ratio {kg-H2O/kg-air}
  0.008,                                  !- Zone Heating Design Supply Air Humidity Ratio {kg-H2O/kg-air}
  ,                                       !- Zone Heating Sizing Factor
  ,                                       !- Zone Cooling Sizing Factor
  DesignDay,                              !- Cooling Design Air Flow Method
  ,                                       !- Cooling Design Air Flow Rate {m3/s}
  ,                                       !- Cooling Minimum Air Flow per Zone Floor Area {m3/s-m2}
  ,                                       !- Cooling Minimum Air Flow {m3/s}
  ,                                       !- Cooling Minimum Air Flow Fraction
  DesignDay,                              !- Heating Design Air Flow Method
  ,                                       !- Heating Design Air Flow Rate {m3/s}
  ,                                       !- Heating Maximum Air Flow per Zone Floor Area {m3/s-m2}
  ,                                       !- Heating Maximum Air Flow {m3/s}
  ,                                       !- Heating Maximum Air Flow Fraction
  No,                                     !- Account for Dedicated Outdoor Air System
  NeutralSupplyAir,                       !- Dedicated Outdoor Air System Control Strategy
  autosize,                               !- Dedicated Outdoor Air Low Setpoint Temperature for Design {C}
  autosize,                               !- Dedicated Outdoor Air High Setpoint Temperature for Design {C}
  Sensible Load Only No Latent Load,      !- Zone Load Sizing Method
  HumidityRatioDifference,                !- Zone Latent Cooling Design Supply Air Humidity Ratio Input Method
  ,                                       !- Zone Dehumidification Design Supply Air Humidity Ratio {kgWater/kgDryAir}
  0.005,                                  !- Zone Cooling Design Supply Air Humidity Ratio Difference {kgWater/kgDryAir}
  HumidityRatioDifference,                !- Zone Latent Heating Design Supply Air Humidity Ratio Input Method
  ,                                       !- Zone Humidification Design Supply Air Humidity Ratio {kgWater/kgDryAir}
  0.005,                                  !- Zone Humidification Design Supply Air Humidity Ratio Difference {kgWater/kgDryAir}
  ,                                       !- Zone Humidistat Dehumidification Set Point Schedule Name
  ,                                       !- Zone Humidistat Humidification Set Point Schedule Name
  ,                                       !- Design Zone Air Distribution Effectiveness in Cooling Mode
  ,                                       !- Design Zone Air Distribution Effectiveness in Heating Mode
  ,                                       !- Design Zone Secondary Recirculation Fraction {dimensionless}
  ,                                       !- Design Minimum Zone Ventilation Efficiency {dimensionless}
  Coincident;                             !- Sizing Option

OS:ZoneHVAC:EquipmentList,
  {b866a227-63e8-45a9-bfe0-1ab5dbfae19e}, !- Handle
  Zone HVAC Equipment List 2,             !- Name
  {8bdfcc1e-6887-48e8-a5c9-532d9631e555}; !- Thermal Zone

OS:AdditionalProperties,
  {8b494d1e-c9be-4b76-905a-6d0808d6412f}, !- Handle
  {8bdfcc1e-6887-48e8-a5c9-532d9631e555}, !- Object Name
  ObjectType,                             !- Feature Name 1
  String,                                 !- Feature Data Type 1
  attic - vented;                         !- Feature Value 1

OS:Space,
  {c83e3647-5aea-40b6-ba32-307cc2b42e04}, !- Handle
  attic - vented 1,                       !- Name
  ,                                       !- Space Type Name
  ,                                       !- Default Construction Set Name
  ,                                       !- Default Schedule Set Name
  ,                                       !- Direction of Relative North {deg}
  ,                                       !- X Origin {m}
  ,                                       !- Y Origin {m}
  ,                                       !- Z Origin {m}
  ,                                       !- Building Story Name
  {8bdfcc1e-6887-48e8-a5c9-532d9631e555}, !- Thermal Zone Name
  ,                                       !- Part of Total Floor Area
  ,                                       !- Design Specification Outdoor Air Object Name
  ,                                       !- Building Unit Name
  356.389957095237;                       !- Volume {m3}

OS:Material,
  {7c43845c-bc04-4b2b-b520-69ac7d320c96}, !- Handle
  asphalt or fiberglass shingles,         !- Name