
OS:Version,
  {3d445ae0-d85b-4837-a302-ad2e7abcf42e}, !- Handle
  3.10.0;                                 !- Version Identifier

OS:SimulationControl,
  {c3e51936-9c53-47ca-b641-ea273c202942}, !- Handle
  ,                                       !- Do Zone Sizing Calculation
  ,                                       !- Do System Sizing Calculation
  ,                                       !- Do Plant Sizing Calculation
  No;                                     !- Run Simulation for Sizing Periods

OS:Timestep,
  {29b47c44-4da2-471f-94de-9f60b1b38530}, !- Handle
  1;                                      !- Number of Timesteps per Hour

OS:ShadowCalculation,
  {ab78a920-1f21-4f40-bc58-20e3762265c8}, !- Handle
  PolygonClipping,                        !- Shading Calculation Method
  ,                                       !- Shading Calculation Update Frequency Method
  20,                                     !- Shading Calculation Update Frequency
  200,                                    !- Maximum Figures in Shadow Overlap Calculations
  ,                                       !- Polygon Clipping Algorithm
  512,                                    !- Pixel Counting Resolution
  ,                                       !- Sky Diffuse Modeling Algorithm
  No,                                     !- Output External Shading Calculation Results
  No,                                     !- Disable Self-Shading Within Shading Zone Groups
  No;                                     !- Disable Self-Shading From Shading Zone Groups to Other Zones

OS:SurfaceConvectionAlgorithm:Outside,
  {78eaba3a-0ac4-4e95-928b-7668a20ef3cd}, !- Handle
  DOE-2;                                  !- Algorithm

OS:SurfaceConvectionAlgorithm:Inside,
  {4bdd3a5a-727e-46d1-9080-10eaba72c78b}, !- Handle
  TARP;                                   !- Algorithm

OS:ZoneCapacitanceMultiplier:ResearchSpecial,
  {1bdbafde-bd67-4ea8-ba90-cbba297c249d}, !- Handle
  7,                                      !- Temperature Capacity Multiplier
  15,                                     !- Humidity Capacity Multiplier
  ;                                       !- Carbon Dioxide Capacity Multiplier

OS:ConvergenceLimits,
  {3dc60b27-9bf5-4d53-90a8-def301c95b7b}, !- Handle
  0;                                      !- Minimum System Timestep {minutes}

OS:RunPeriod,
  {592b9ede-4930-456d-bd73-9eb3423dccd3}, !- Handle
  Run Period 1,                           !- Name
  1,                                      !- Begin Month
  1,                                      !- Begin Day of Month
  12,                                     !- End Month
  31,                                     !- End Day of Month
  ,                                       !- Use Weather File Holidays and Special Days
  ,                                       !- Use Weather File Daylight Saving Period
  ,                                       !- Apply Weekend Holiday Rule
  ,                                       !- Use Weather File Rain Indicators
  ,                                       !- Use Weather File Snow Indicators
  ;                                       !- Number of Times Runperiod to be Repeated

OS:PerformancePrecisionTradeoffs,
  {ef3123ea-1265-4085-80f6-abc134afbf7e}, !- Handle
  ,                                       !- Use Coil Direct Solutions
  CarrollMRT;                             !- Zone Radiant Exchange Algorithm

OS:WeatherFile,
  {98acbbf0-9d06-4df4-be09-cc18155522fe}, !- Handle
  Buffalo Niagara Intl Ap,                !- City
  NY,                                     !- State Province Region
  USA,                                    !- Country
  TMY3,                                   !- Data Source
  725280,                                 !- WMO Number
  42.93,                                  !- Latitude {deg}
  -78.73,                                 !- Longitude {deg}
  -5,                                     !- Time Zone {hr}
  215,                                    !- Elevation {m}
  /Users/nmoore/github/urbanopt-example-geojson-project/example_project/weather/USA_NY_Buffalo-Greater.Buffalo.Intl.AP.725280_TMY3.epw, !- Url
  6B50E0FF,                               !- Checksum
  ,                                       !- Start Date Actual Year
  Sunday;                                 !- Start Day of Week

OS:YearDescription,
  {e2a57bb0-352c-4caa-bc05-8ed50032ae7c}, !- Handle
  2007,                                   !- Calendar Year
  ,                                       !- Day of Week for Start Day
  ;                                       !- Is Leap Year

OS:Site,
  {6981bc5d-abde-49d4-ba1e-2b599b970352}, !- Handle
  Buffalo Niagara Intl Ap_NY,             !- Name
  42.93,                                  !- Latitude {deg}
  -78.73,                                 !- Longitude {deg}
  -5,                                     !- Time Zone {hr}
  215,                                    !- Elevation {m}
  Suburbs,                                !- Terrain
  Yes;                                    !- Keep Site Location Information

OS:RunPeriodControl:DaylightSavingTime,
  {2a713e9e-3d75-476d-9219-c318e0aaf7ca}, !- Handle
  Mar 12,                                 !- Start Date
  Nov 5;                                  !- End Date

OS:Site:GroundTemperature:Shallow,
  {77a64399-ae0a-4182-b899-040a683c6e84}, !- Handle
  4.30207395723828,                       !- January Surface Ground Temperature {C}
  2.29327249652502,                       !- February Surface Ground Temperature {C}
  2.13240047156047,                       !- March Surface Ground Temperature {C}
  3.08567940719286,                       !- April Surface Ground Temperature {C}
  6.91256312497526,                       !- May Surface Ground Temperature {C}
  10.7216195949507,                       !- June Surface Ground Temperature {C}
  14.0238679822574,                       !- July Surface Ground Temperature {C}
  16.1157611184724,                       !- August Surface Ground Temperature {C}
  16.2934789303462,                       !- September Surface Ground Temperature {C}
  14.5920754632847,                       !- October Surface Ground Temperature {C}
  11.374036348653,                        !- November Surface Ground Temperature {C}
  7.68182621661674;                       !- December Surface Ground Temperature {C}

OS:ThermalZone,
  {688bfee7-aec7-4675-9d9c-0220c3f605f4}, !- Handle
  conditioned space,                      !- Name
  1,                                      !- Multiplier
  ,                                       !- Ceiling Height {m}
  692.06373070848,                        !- Volume {m3}
  ,                                       !- Floor Area {m2}
  ,                                       !- Zone Inside Convection Algorithm
  ,                                       !- Zone Outside Convection Algorithm
  ,                                       !- Zone Conditioning Equipment List Name
  {93e95a5e-e51a-4a2e-94c4-a8983f67c81f}, !- Zone Air Inlet Port List
  {288cb665-c833-4228-a366-4eb9b8a88b72}, !- Zone Air Exhaust Port List
  {e1dd295a-ace0-4cdd-857b-1ad8d57114a5}, !- Zone Air Node Name
  {cfc092a7-a74c-4aba-8a89-4f7e6f0aedab}, !- Zone Return Air Port List
  ,                                       !- Primary Daylighting Control Name
  ,                                       !- Fraction of Zone Controlled by Primary Daylighting Control
  ,                                       !- Secondary Daylighting Control Name
  ,                                       !- Fraction of Zone Controlled by Secondary Daylighting Control
  ,                                       !- Illuminance Map Name
  ,                                       !- Group Rendering Name
  {adc50873-d498-42c6-aa6e-b42b9ea1d849}, !- Thermostat Name
  No;                                     !- Use Ideal Air Loads

OS:Node,
  {cc05a72e-feb6-4340-ab37-dfae7f14d894}, !- Handle
  Node 1,                                 !- Name
  {e1dd295a-ace0-4cdd-857b-1ad8d57114a5}, !- Inlet Port
  ;                                       !- Outlet Port

OS:Connection,
  {e1dd295a-ace0-4cdd-857b-1ad8d57114a5}, !- Handle
  {688bfee7-aec7-4675-9d9c-0220c3f605f4}, !- Source Object
  11,                                     !- Outlet Port
  {cc05a72e-feb6-4340-ab37-dfae7f14d894}, !- Target Object
  2;                                      !- Inlet Port

OS:PortList,
  {93e95a5e-e51a-4a2e-94c4-a8983f67c81f}, !- Handle
  {688bfee7-aec7-4675-9d9c-0220c3f605f4}, !- HVAC Component
  {0cbd03da-125c-4cfe-ac37-cf676a1e3295}; !- Port 1

OS:PortList,
  {288cb665-c833-4228-a366-4eb9b8a88b72}, !- Handle
  {688bfee7-aec7-4675-9d9c-0220c3f605f4}; !- HVAC Component

OS:PortList,
  {cfc092a7-a74c-4aba-8a89-4f7e6f0aedab}, !- Handle
  {688bfee7-aec7-4675-9d9c-0220c3f605f4}, !- HVAC Component
  {365e0d37-ebd8-43fc-8498-3443639e3603}; !- Port 1

OS:Sizing:Zone,
  {b9d33e32-5c30-46ad-97a4-39fb9ec84dd6}, !- Handle
  {688bfee7-aec7-4675-9d9c-0220c3f605f4}, !- Zone or ZoneList Name
  SupplyAirTemperature,                   !- Zone Cooling Design Supply Air Temperature Input Method
  14,                                     !- Zone Cooling Design Supply Air Temperature {C}
  11.11,                                  !- Zone Cooling Design Supply Air Temperature Difference {deltaC}
  SupplyAirTemperature,                   !- Zone Heating Design Supply Air Temperature Input Method
  40,                                     !- Zone Heating Design Supply Air Temperature {C}
  11.11,                                  !- Zone Heating Design Supply Air Temperature Difference {deltaC}
  0.0085,                                 !- Zone Cooling Design Supply Air Humidity Ratio {kg-H2O/kg-air}
  0.008,                                  !- Zone Heating Design Supply Air Humidity Ratio {kg-H2O/kg-air}
  ,                                       !- Zone Heating Sizing Factor
  ,                                       !- Zone Cooling Sizing Factor
  DesignDay,                              !- Cooling Design Air Flow Method
  ,                                       !- Cooling Design Air Flow Rate {m3/s}
  ,                                       !- Cooling Minimum Air Flow per Zone Floor Area {m3/s-m2}
  ,                                       !- Cooling Minimum Air Flow {m3/s}
  ,                                       !- Cooling Minimum Air Flow Fraction
  DesignDay,                              !- Heating Design Air Flow Method
  ,                                       !- Heating Design Air Flow Rate {m3/s}
  ,                                       !- Heating Maximum Air Flow per Zone Floor Area {m3/s-m2}
  ,                                       !- Heating Maximum Air Flow {m3/s}
  ,                                       !- Heating Maximum Air Flow Fraction
  No,                                     !- Account for Dedicated Outdoor Air System
  NeutralSupplyAir,                       !- Dedicated Outdoor Air System Control Strategy
  autosize,                               !- Dedicated Outdoor Air Low Setpoint Temperature for Design {C}
  autosize,                               !- Dedicated Outdoor Air High Setpoint Temperature for Design {C}
  Sensible Load Only No Latent Load,      !- Zone Load Sizing Method
  HumidityRatioDifference,                !- Zone Latent Cooling Design Supply Air Humidity Ratio Input Method
  ,                                       !- Zone Dehumidification Design Supply Air Humidity Ratio {kgWater/kgDryAir}
  0.005,                                  !- Zone Cooling Design Supply Air Humidity Ratio Difference {kgWater/kgDryAir}
  HumidityRatioDifference,                !- Zone Latent Heating Design Supply Air Humidity Ratio Input Method
  ,                                       !- Zone Humidification Design Supply Air Humidity Ratio {kgWater/kgDryAir}
  0.005,                                  !- Zone Humidification Design Supply Air Humidity Ratio Difference {kgWater/kgDryAir}
  ,                                       !- Zone Humidistat Dehumidification Set Point Schedule Name
  ,                                       !- Zone Humidistat Humidification Set Point Schedule Name
  ,                                       !- Design Zone Air Distribution Effectiveness in Cooling Mode
  ,                                       !- Design Zone Air Distribution Effectiveness in Heating Mode
  ,                                       !- Design Zone Secondary Recirculation Fraction {dimensionless}
  ,                                       !- Design Minimum Zone Ventilation Efficiency {dimensionless}
  Coincident;                             !- Sizing Option

OS:ZoneHVAC:EquipmentList,
  {20ff8558-200c-4603-940f-1710e7eaac05}, !- Handle
  Zone HVAC Equipment List 1,             !- Name
  {688bfee7-aec7-4675-9d9c-0220c3f605f4}, !- Thermal Zone
  ,                                       !- Load Distribution Scheme
  {a8397222-1469-4b56-aa73-2bfa64d75c63}, !- Zone Equipment 1
  1,                                      !- Zone Equipment Cooling Sequence 1
  1,                                      !- Zone Equipment Heating or No-Load Sequence 1
  {ba257103-5069-4bfc-ac2e-6c954c16f854}, !- Zone Equipment Sequential Cooling Fraction Schedule Name 1
  {aa976a33-0a8a-4487-9dec-effe6a1e12b1}, !- Zone Equipment Sequential Heating Fraction Schedule Name 1
  {76796591-9723-44ff-891b-da8d5836df14}, !- Zone Equipment 2
  2,                                      !- Zone Equipment Cooling Sequence 2
  2,                                      !- Zone Equipment Heating or No-Load Sequence 2
  {cdd30b55-8019-4ed3-b175-5a12bc1f3324}, !- Zone Equipment Sequential Cooling Fraction Schedule Name 2
  {55a6c8f2-0e08-4973-a842-d9d4a8486f40}; !- Zone Equipment Sequential Heating Fraction Schedule Name 2

OS:AdditionalProperties,
  {f9813643-5bc5-4c54-abda-f52bdd73f6ea}, !- Handle
  {688bfee7-aec7-4675-9d9c-0220c3f605f4}, !- Object Name
  ObjectType,                             !- Feature Name 1
  String,                                 !- Feature Data Type 1
  conditioned space;                      !- Feature Value 1

OS:Space,
  {e13a947f-1556-473c-bd05-23fa26c534f7}, !- Handle
  conditioned space 1,                    !- Name
  ,                                       !- Space Type Name
  ,                                       !- Default Construction Set Name
  ,                                       !- Default Schedule Set Name
  ,                                       !- Direction of Relative North {deg}
  ,                                       !- X Origin {m}
  ,                                       !- Y Origin {m}
  ,                                       !- Z Origin {m}
  ,                                       !- Building Story Name
  {688bfee7-aec7-4675-9d9c-0220c3f605f4}, !- Thermal Zone Name
  ,                                       !- Part of Total Floor Area
  ,                                       !- Design Specification Outdoor Air Object Name
  ,                                       !- Building Unit Name
  692.06373070848;                        !- Volume {m3}

OS:Schedule:Ruleset,
  {36cdff9f-451b-43c2-9d76-6a31498c6e90}, !- Handle
  heating setpoint,                       !- Name
  {f16ee90b-d7e4-4e10-8787-ef2915d31aef}, !- Schedule Type Limits Name
  {74fd5098-ad5b-4fdb-87c5-b50fa67f5314}; !- Default Day Schedule Name

OS:Schedule:Day,
  {74fd5098-ad5b-4fdb-87c5-b50fa67f5314}, !- Handle
  heating setpoint default day,           !- Name
  {f16ee90b-d7e4-4e10-8787-ef2915d31aef}, !- Schedule Type Limits Name
  ,                                       !- Interpolate to Timestep
  24,                                     !- Hour 1
  0,                                      !- Minute 1
  0;                                      !- Value Until Time 1

OS:Schedule:Rule,
  {48337b71-f101-4c23-9d31-72fd121e78e3}, !- Handle
  heating setpoint allday rule,           !- Name
  {36cdff9f-451b-43c2-9d76-6a31498c6e90}, !- Schedule Ruleset Name
  0,                                      !- Rule Order
  {ddab06b0-d8a4-4de6-9315-aa26ae02b696}, !- Day Schedule Name
  Yes,                                    !- Apply Sunday
  Yes,                                    !- Apply Monday
  Yes,                                    !- Apply Tuesday
  Yes,                                    !- Apply Wednesday
  Yes,                                    !- Apply Thursday
  Yes,                                    !- Apply Friday
  Yes,                                    !- Apply Saturday
  DateRange,                              !- Date Specification Type
  1,                                      !- Start Month
  1,                                      !- Start Day
  12,                                     !- End Month
  31;                                     !- End Day

OS:Schedule:Day,
  {ddab06b0-d8a4-4de6-9315-aa26ae02b696}, !- Handle
  heating setpoint day,                   !- Name
  {f16ee90b-d7e4-4e10-8787-ef2915d31aef}, !- Schedule Type Limits Name
  ,                                       !- Interpolate to Timestep
  24,                                     !- Hour 1
  0,                                      !- Minute 1
  20;                                     !- Value Until Time 1

OS:Schedule:Ruleset,
  {6da40f20-caee-4b17-b1dd-b23ef2602710}, !- Handle
  cooling setpoint,                       !- Name
  {f16ee90b-d7e4-4e10-8787-ef2915d31aef}, !- Schedule Type Limits Name
  {5696e920-dd5b-46b5-a1ef-4951f262d73d}; !- Default Day Schedule Name

OS:Schedule:Day,
  {5696e920-dd5b-46b5-a1ef-4951f262d73d}, !- Handle
  cooling setpoint default day,           !- Name
  {f16ee90b-d7e4-4e10-8787-ef2915d31aef}, !- Schedule Type Limits Name
  ,                                       !- Interpolate to Timestep
  24,                                     !- Hour 1
  0,                                      !- Minute 1
  0;                                      !- Value Until Time 1

OS:Schedule:Rule,
  {d91ca98a-02cb-4809-851b-739b2b4311d8}, !- Handle
  cooling setpoint allday rule,           !- Name
  {6da40f20-caee-4b17-b1dd-b23ef2602710}, !- Schedule Ruleset Name
  0,                                      !- Rule Order
  {b3db34e8-fb57-4187-9db2-aec1ec2ec570}, !- Day Schedule Name
  Yes,                                    !- Apply Sunday
  Yes,                                    !- Apply Monday
  Yes,                                    !- Apply Tuesday
  Yes,                                    !- Apply Wednesday
  Yes,                                    !- Apply Thursday
  Yes,                                    !- Apply Friday
  Yes,                                    !- Apply Saturday
  DateRange,                              !- Date Specification Type
  1,                                      !- Start Month
  1,                                      !- Start Day
  12,                                     !- End Month
  31;                                     !- End Day

OS:Schedule:Day,
  {b3db34e8-fb57-4187-9db2-aec1ec2ec570}, !- Handle
  cooling setpoint day,                   !- Name
  {f16ee90b-d7e4-4e10-8787-ef2915d31aef}, !- Schedule Type Limits Name
  ,                                       !- Interpolate to Timestep
  24,                                     !- Hour 1
  0,                                      !- Minute 1
  25.5555555555556;                       !- Value Until Time 1

OS:ThermostatSetpoint:DualSetpoint,
  {adc50873-d498-42c6-aa6e-b42b9ea1d849}, !- Handle
  conditioned space temperature setpoint, !- Name
  {36cdff9f-451b-43c2-9d76-6a31498c6e90}, !- Heating Setpoint Temperature Schedule Name
  {6da40f20-caee-4b17-b1dd-b23ef2602710}, !- Cooling Setpoint Temperature Schedule Name
  0;                                      !- Temperature Difference Between Cutout And Setpoint {deltaC}

OS:ScheduleTypeLimits,
  {f16ee90b-d7e4-4e10-8787-ef2915d31aef}, !- Handle
  Temperature,                            !- Name
  ,                                       !- Lower Limit Value
  ,                                       !- Upper Limit Value
  Continuous,                             !- Numeric Type
  Temperature;                            !- Unit Type

OS:Surface,
  {19b54664-2754-43ca-bbde-1de1d7c10f38}, !- Handle
  Roof1,                                  !- Name
  RoofCeiling,                            !- Surface Type
  {da94de0d-9f0e-47fc-b070-f0984fb48aec}, !- Construction Name
  {e0ed7377-7604-49d3-b48b-c6972bf3f7d2}, !- Space Name
  Outdoors,                               !- Outside Boundary Condition
  ,                                       !- Outside Boundary Condition Object
  SunExposed,                             !- Sun Exposure
  WindExposed,                            !- Wind Exposure
  ,                                       !- View Factor to Ground
  ,                                       !- Number of Vertices
  -26.9347048849634, 58.0557891618865, 2.4384, !- X,Y,Z Vertex 1 {m}
  -26.9347048849634, 46.7895631136661, 8.0715130241102, !- X,Y,Z Vertex 2 {m}
  -14.3386812381136, 46.7895631136661, 8.0715130241102, !- X,Y,Z Vertex 3 {m}
  -14.3386812381136, 58.0557891618865, 2.4384; !- X,Y,Z Vertex 4 {m}

OS:AdditionalProperties,
  {494572e4-76ba-4652-84aa-0b95be8ae18e}, !- Handle
  {19b54664-2754-43ca-bbde-1de1d7c10f38}, !- Object Name
  Length,                                 !- Feature Name 1
  Double,                                 !- Feature Data Type 1
  41.325536899113608,                     !- Feature Value 1
  Width,                                  !- Feature Name 2
  Double,                                 !- Feature Data Type 2
  41.325536899113601,                     !- Feature Value 2
  Azimuth,                                !- Feature Name 3
  Integer,                                !- Feature Data Type 3
  0,                                      !- Feature Value 3
  Tilt,                                   !- Feature Name 4
  Double,                                 !- Feature Data Type 4
  0.5,                                    !- Feature Value 4
  SurfaceType,                            !- Feature Name 5
  String,                                 !- Feature Data Type 5
  Roof;                                   !- Feature Value 5

OS:ThermalZone,
  {c6c45e29-55a5-43c9-80ff-67d0721b2e49}, !- Handle
  attic - vented,                         !- Name
  1,                                      !- Multiplier
  ,                                       !- Ceiling Height {m}
  356.390921899745,                       !- Volume {m3}
  ,                                       !- Floor Area {m2}
  ,                                       !- Zone Inside Convection Algorithm
  ,                                       !- Zone Outside Convection Algorithm
  ,                                       !- Zone Conditioning Equipment List Name
  {ed56f1f5-b773-45a5-bbdc-1454082e758d}, !- Zone Air Inlet Port List
  {1dea1c70-8b30-4591-8a6c-e23299b4510a}, !- Zone Air Exhaust Port List
  {0233f090-b5b2-4ba1-89e6-0c48b08c9912}, !- Zone Air Node Name
  {86fac034-1d51-4328-96f4-74de7611a757}, !- Zone Return Air Port List
  ,                                       !- Primary Daylighting Control Name
  ,                                       !- Fraction of Zone Controlled by Primary Daylighting Control
  ,                                       !- Secondary Daylighting Control Name
  ,                                       !- Fraction of Zone Controlled by Secondary Daylighting Control
  ,                                       !- Illuminance Map Name
  ,                                       !- Group Rendering Name
  ,                                       !- Thermostat Name
  No;                                     !- Use Ideal Air Loads

OS:Node,
  {19e38f6c-69aa-4a37-a303-437e1bb12c15}, !- Handle
  Node 2,                                 !- Name
  {0233f090-b5b2-4ba1-89e6-0c48b08c9912}, !- Inlet Port
  ;                                       !- Outlet Port

OS:Connection,
  {0233f090-b5b2-4ba1-89e6-0c48b08c9912}, !- Handle
  {c6c45e29-55a5-43c9-80ff-67d0721b2e49}, !- Source Object
  11,                                     !- Outlet Port
  {19e38f6c-69aa-4a37-a303-437e1bb12c15}, !- Target Object
  2;                                      !- Inlet Port

OS:PortList,
  {ed56f1f5-b773-45a5-bbdc-1454082e758d}, !- Handle
  {c6c45e29-55a5-43c9-80ff-67d0721b2e49}; !- HVAC Component

OS:PortList,
  {1dea1c70-8b30-4591-8a6c-e23299b4510a}, !- Handle
  {c6c45e29-55a5-43c9-80ff-67d0721b2e49}; !- HVAC Component

OS:PortList,
  {86fac034-1d51-4328-96f4-74de7611a757}, !- Handle
  {c6c45e29-55a5-43c9-80ff-67d0721b2e49}; !- HVAC Component

OS:Sizing:Zone,
  {0515871f-5815-49ec-a2f9-238e8fb3dd39}, !- Handle
  {c6c45e29-55a5-43c9-80ff-67d0721b2e49}, !- Zone or ZoneList Name
  SupplyAirTemperature,                   !- Zone Cooling Design Supply Air Temperature Input Method
  14,                                     !- Zone Cooling Design Supply Air Temperature {C}
  11.11,                                  !- Zone Cooling Design Supply Air Temperature Difference {deltaC}
  SupplyAirTemperature,                   !- Zone Heating Design Supply Air Temperature Input Method
  40,                                     !- Zone Heating Design Supply Air Temperature {C}
  11.11,                                  !- Zone Heating Design Supply Air Temperature Difference {deltaC}
  0.0085,                                 !- Zone Cooling Design Supply Air Humidity Ratio {kg-H2O/kg-air}
  0.008,                                  !- Zone Heating Design Supply Air Humidity Ratio {kg-H2O/kg-air}
  ,                                       !- Zone Heating Sizing Factor
  ,                                       !- Zone Cooling Sizing Factor
  DesignDay,                              !- Cooling Design Air Flow Method
  ,                                       !- Cooling Design Air Flow Rate {m3/s}
  ,                                       !- Cooling Minimum Air Flow per Zone Floor Area {m3/s-m2}
  ,                                       !- Cooling Minimum Air Flow {m3/s}
  ,                                       !- Cooling Minimum Air Flow Fraction
  DesignDay,                              !- Heating Design Air Flow Method
  ,                                       !- Heating Design Air Flow Rate {m3/s}
  ,                                       !- Heating Maximum Air Flow per Zone Floor Area {m3/s-m2}
  ,                                       !- Heating Maximum Air Flow {m3/s}
  ,                                       !- Heating Maximum Air Flow Fraction
  No,                                     !- Account for Dedicated Outdoor Air System
  NeutralSupplyAir,                       !- Dedicated Outdoor Air System Control Strategy
  autosize,                               !- Dedicated Outdoor Air Low Setpoint Temperature for Design {C}
  autosize,                               !- Dedicated Outdoor Air High Setpoint Temperature for Design {C}
  Sensible Load Only No Latent Load,      !- Zone Load Sizing Method
  HumidityRatioDifference,                !- Zone Latent Cooling Design Supply Air Humidity Ratio Input Method
  ,                                       !- Zone Dehumidification Design Supply Air Humidity Ratio {kgWater/kgDryAir}
  0.005,                                  !- Zone Cooling Design Supply Air Humidity Ratio Difference {kgWater/kgDryAir}
  HumidityRatioDifference,                !- Zone Latent Heating Design Supply Air Humidity Ratio Input Method
  ,                                       !- Zone Humidification Design Supply Air Humidity Ratio {kgWater/kgDryAir}
  0.005,                                  !- Zone Humidification Design Supply Air Humidity Ratio Difference {kgWater/kgDryAir}
  ,                                       !- Zone Humidistat Dehumidification Set Point Schedule Name
  ,                                       !- Zone Humidistat Humidification Set Point Schedule Name
  ,                                       !- Design Zone Air Distribution Effectiveness in Cooling Mode
  ,                                       !- Design Zone Air Distribution Effectiveness in Heating Mode
  ,                                       !- Design Zone Secondary Recirculation Fraction {dimensionless}
  ,                                       !- Design Minimum Zone Ventilation Efficiency {dimensionless}
  Coincident;                             !- Sizing Option

OS:ZoneHVAC:EquipmentList,
  {1e69bee6-f480-4c20-8589-a68195d3c973}, !- Handle
  Zone HVAC Equipment List 2,             !- Name
  {c6c45e29-55a5-43c9-80ff-67d0721b2e49}; !- Thermal Zone

OS:AdditionalProperties,
  {71833738-cc79-43f5-bc8d-65b7fa365fe6}, !- Handle
  {c6c45e29-55a5-43c9-80ff-67d0721b2e49}, !- Object Name
  ObjectType,                             !- Feature Name 1
  String,                                 !- Feature Data Type 1
  attic - vented;                         !- Feature Value 1

OS:Space,
  {e0ed7377-7604-49d3-b48b-c6972bf3f7d2}, !- Handle
  attic - vented 1,                       !- Name
  ,                                       !- Space Type Name
  ,                                       !- Default Construction Set Name
  ,                                       !- Default Schedule Set Name
  ,                                       !- Direction of Relative North {deg}
  ,                                       !- X Origin {m}
  ,                                       !- Y Origin {m}
  ,                                       !- Z Origin {m}
  ,                                       !- Building Story Name
  {c6c45e29-55a5-43c9-80ff-67d0721b2e49}, !- Thermal Zone Name
  ,                                       !- Part of Total Floor Area
  ,                                       !- Design Specification Outdoor Air Object Name
  ,                                       !- Building Unit Name
  356.390921899745;                       !- Volume {m3}

OS:Material,
  {db90ff21-7efb-442a-b2e6-b57e9eff4ffc}, !- Handle
  asphalt or fiberglass shingles,         !- Name