
OS:Version,
  {465ce8a7-2002-433b-9585-df93ad38a2f5}, !- Handle
  3.9.0;                                  !- Version Identifier

OS:SimulationControl,
  {fb48c0cb-160a-464c-be80-12fda2720666}, !- Handle
  ,                                       !- Do Zone Sizing Calculation
  ,                                       !- Do System Sizing Calculation
  ,                                       !- Do Plant Sizing Calculation
  No;                                     !- Run Simulation for Sizing Periods

OS:Timestep,
  {0f468b31-7988-4ef8-b4f6-c9a5e7d5f62a}, !- Handle
  1;                                      !- Number of Timesteps per Hour

OS:ShadowCalculation,
  {54452526-c478-4f04-8938-ad5bdc868aaf}, !- Handle
  PolygonClipping,                        !- Shading Calculation Method
  ,                                       !- Shading Calculation Update Frequency Method
  20,                                     !- Shading Calculation Update Frequency
  200,                                    !- Maximum Figures in Shadow Overlap Calculations
  ,                                       !- Polygon Clipping Algorithm
  512,                                    !- Pixel Counting Resolution
  ,                                       !- Sky Diffuse Modeling Algorithm
  No,                                     !- Output External Shading Calculation Results
  No,                                     !- Disable Self-Shading Within Shading Zone Groups
  No;                                     !- Disable Self-Shading From Shading Zone Groups to Other Zones

OS:SurfaceConvectionAlgorithm:Outside,
  {33b16641-a132-4896-b44e-2098822c2095}, !- Handle
  DOE-2;                                  !- Algorithm

OS:SurfaceConvectionAlgorithm:Inside,
  {fe575c46-b54c-4bfc-8a10-a6187976f075}, !- Handle
  TARP;                                   !- Algorithm

OS:ZoneCapacitanceMultiplier:ResearchSpecial,
  {d81ef5fc-a638-4233-932e-1b42075d0471}, !- Handle
  7,                                      !- Temperature Capacity Multiplier
  15,                                     !- Humidity Capacity Multiplier
  ;                                       !- Carbon Dioxide Capacity Multiplier

OS:ConvergenceLimits,
  {45d9f817-4634-4a7a-8b0f-39c4fd0688a3}, !- Handle
  0;                                      !- Minimum System Timestep {minutes}

OS:RunPeriod,
  {4cbe4498-cbf9-4482-8d2b-31900341e9a3}, !- Handle
  Run Period 1,                           !- Name
  1,                                      !- Begin Month
  1,                                      !- Begin Day of Month
  12,                                     !- End Month
  31,                                     !- End Day of Month
  ,                                       !- Use Weather File Holidays and Special Days
  ,                                       !- Use Weather File Daylight Saving Period
  ,                                       !- Apply Weekend Holiday Rule
  ,                                       !- Use Weather File Rain Indicators
  ,                                       !- Use Weather File Snow Indicators
  ;                                       !- Number of Times Runperiod to be Repeated

OS:PerformancePrecisionTradeoffs,
  {d149996c-cd29-4b5f-8bae-dda3b2825d61}, !- Handle
  ,                                       !- Use Coil Direct Solutions
  CarrollMRT;                             !- Zone Radiant Exchange Algorithm

OS:WeatherFile,
  {bcc862c1-2ea5-456e-bc7b-bf5f871f499c}, !- Handle
  Buffalo Niagara Intl Ap,                !- City
  NY,                                     !- State Province Region
  USA,                                    !- Country
  TMY3,                                   !- Data Source
  725280,                                 !- WMO Number
  42.93,                                  !- Latitude {deg}
  -78.73,                                 !- Longitude {deg}
  -5,                                     !- Time Zone {hr}
  215,                                    !- Elevation {m}
  /Users/nmoore/github/urbanopt-example-geojson-project/example_project/weather/USA_NY_Buffalo-Greater.Buffalo.Intl.AP.725280_TMY3.epw, !- Url
  6B50E0FF,                               !- Checksum
  ,                                       !- Start Date Actual Year
  Sunday;                                 !- Start Day of Week

OS:YearDescription,
  {b71e7f22-c337-46e2-90c1-218100ca39b4}, !- Handle
  2007,                                   !- Calendar Year
  ,                                       !- Day of Week for Start Day
  ;                                       !- Is Leap Year

OS:Site,
  {3eec14c9-ccb0-4407-9884-b882d42195a7}, !- Handle
  Buffalo Niagara Intl Ap_NY,             !- Name
  42.93,                                  !- Latitude {deg}
  -78.73,                                 !- Longitude {deg}
  -5,                                     !- Time Zone {hr}
  215,                                    !- Elevation {m}
  Suburbs,                                !- Terrain
  Yes;                                    !- Keep Site Location Information

OS:RunPeriodControl:DaylightSavingTime,
  {df9e11b1-0e5c-4492-9c4d-dd5a5a3ba16f}, !- Handle
  Mar 12,                                 !- Start Date
  Nov 5;                                  !- End Date

OS:Site:GroundTemperature:Shallow,
  {5fabfcdb-a49d-43bb-8346-6b9f1a079334}, !- Handle
  4.30207395723828,                       !- January Surface Ground Temperature {C}
  2.29327249652502,                       !- February Surface Ground Temperature {C}
  2.13240047156047,                       !- March Surface Ground Temperature {C}
  3.08567940719286,                       !- April Surface Ground Temperature {C}
  6.91256312497526,                       !- May Surface Ground Temperature {C}
  10.7216195949507,                       !- June Surface Ground Temperature {C}
  14.0238679822574,                       !- July Surface Ground Temperature {C}
  16.1157611184724,                       !- August Surface Ground Temperature {C}
  16.2934789303462,                       !- September Surface Ground Temperature {C}
  14.5920754632847,                       !- October Surface Ground Temperature {C}
  11.374036348653,                        !- November Surface Ground Temperature {C}
  7.68182621661674;                       !- December Surface Ground Temperature {C}

OS:ThermalZone,
  {0ec90359-59a9-47b4-af0a-62f100bb40cb}, !- Handle
  conditioned space,                      !- Name
  1,                                      !- Multiplier
  ,                                       !- Ceiling Height {m}
  692.06373070848,                        !- Volume {m3}
  ,                                       !- Floor Area {m2}
  ,                                       !- Zone Inside Convection Algorithm
  ,                                       !- Zone Outside Convection Algorithm
  ,                                       !- Zone Conditioning Equipment List Name
  {a9987ba4-0967-4f36-b7df-7f6360a9964a}, !- Zone Air Inlet Port List
  {21d775af-fbac-42b1-bc45-6e10b4feccb9}, !- Zone Air Exhaust Port List
  {41e23eb6-d1f3-4ca9-bc85-33efad8bc56f}, !- Zone Air Node Name
  {b7b9ce23-cfc5-41c6-b324-d535d84cca4e}, !- Zone Return Air Port List
  ,                                       !- Primary Daylighting Control Name
  ,                                       !- Fraction of Zone Controlled by Primary Daylighting Control
  ,                                       !- Secondary Daylighting Control Name
  ,                                       !- Fraction of Zone Controlled by Secondary Daylighting Control
  ,                                       !- Illuminance Map Name
  ,                                       !- Group Rendering Name
  {4adacf0a-f8fb-4ae9-af28-06ef57ebdf72}, !- Thermostat Name
  No;                                     !- Use Ideal Air Loads

OS:Node,
  {04d1bcf8-b8eb-4a89-b29c-ee753e659e21}, !- Handle
  Node 1,                                 !- Name
  {41e23eb6-d1f3-4ca9-bc85-33efad8bc56f}, !- Inlet Port
  ;                                       !- Outlet Port

OS:Connection,
  {41e23eb6-d1f3-4ca9-bc85-33efad8bc56f}, !- Handle
  {0ec90359-59a9-47b4-af0a-62f100bb40cb}, !- Source Object
  11,                                     !- Outlet Port
  {04d1bcf8-b8eb-4a89-b29c-ee753e659e21}, !- Target Object
  2;                                      !- Inlet Port

OS:PortList,
  {a9987ba4-0967-4f36-b7df-7f6360a9964a}, !- Handle
  {0ec90359-59a9-47b4-af0a-62f100bb40cb}, !- HVAC Component
  {5d1db0f2-2bef-40b1-b730-41f27f901e11}; !- Port 1

OS:PortList,
  {21d775af-fbac-42b1-bc45-6e10b4feccb9}, !- Handle
  {0ec90359-59a9-47b4-af0a-62f100bb40cb}; !- HVAC Component

OS:PortList,
  {b7b9ce23-cfc5-41c6-b324-d535d84cca4e}, !- Handle
  {0ec90359-59a9-47b4-af0a-62f100bb40cb}, !- HVAC Component
  {161490e3-2267-4a5b-b841-1f899b226c7a}; !- Port 1

OS:Sizing:Zone,
  {0ff45786-3395-4ef8-aa5c-e4599bdf14e0}, !- Handle
  {0ec90359-59a9-47b4-af0a-62f100bb40cb}, !- Zone or ZoneList Name
  SupplyAirTemperature,                   !- Zone Cooling Design Supply Air Temperature Input Method
  14,                                     !- Zone Cooling Design Supply Air Temperature {C}
  11.11,                                  !- Zone Cooling Design Supply Air Temperature Difference {deltaC}
  SupplyAirTemperature,                   !- Zone Heating Design Supply Air Temperature Input Method
  40,                                     !- Zone Heating Design Supply Air Temperature {C}
  11.11,                                  !- Zone Heating Design Supply Air Temperature Difference {deltaC}
  0.0085,                                 !- Zone Cooling Design Supply Air Humidity Ratio {kg-H2O/kg-air}
  0.008,                                  !- Zone Heating Design Supply Air Humidity Ratio {kg-H2O/kg-air}
  ,                                       !- Zone Heating Sizing Factor
  ,                                       !- Zone Cooling Sizing Factor
  DesignDay,                              !- Cooling Design Air Flow Method
  ,                                       !- Cooling Design Air Flow Rate {m3/s}
  ,                                       !- Cooling Minimum Air Flow per Zone Floor Area {m3/s-m2}
  ,                                       !- Cooling Minimum Air Flow {m3/s}
  ,                                       !- Cooling Minimum Air Flow Fraction
  DesignDay,                              !- Heating Design Air Flow Method
  ,                                       !- Heating Design Air Flow Rate {m3/s}
  ,                                       !- Heating Maximum Air Flow per Zone Floor Area {m3/s-m2}
  ,                                       !- Heating Maximum Air Flow {m3/s}
  ,                                       !- Heating Maximum Air Flow Fraction
  No,                                     !- Account for Dedicated Outdoor Air System
  NeutralSupplyAir,                       !- Dedicated Outdoor Air System Control Strategy
  autosize,                               !- Dedicated Outdoor Air Low Setpoint Temperature for Design {C}
  autosize,                               !- Dedicated Outdoor Air High Setpoint Temperature for Design {C}
  Sensible Load Only No Latent Load,      !- Zone Load Sizing Method
  HumidityRatioDifference,                !- Zone Latent Cooling Design Supply Air Humidity Ratio Input Method
  ,                                       !- Zone Dehumidification Design Supply Air Humidity Ratio {kgWater/kgDryAir}
  0.005,                                  !- Zone Cooling Design Supply Air Humidity Ratio Difference {kgWater/kgDryAir}
  HumidityRatioDifference,                !- Zone Latent Heating Design Supply Air Humidity Ratio Input Method
  ,                                       !- Zone Humidification Design Supply Air Humidity Ratio {kgWater/kgDryAir}
  0.005,                                  !- Zone Humidification Design Supply Air Humidity Ratio Difference {kgWater/kgDryAir}
  ,                                       !- Zone Humidistat Dehumidification Set Point Schedule Name
  ,                                       !- Zone Humidistat Humidification Set Point Schedule Name
  ,                                       !- Design Zone Air Distribution Effectiveness in Cooling Mode
  ,                                       !- Design Zone Air Distribution Effectiveness in Heating Mode
  ,                                       !- Design Zone Secondary Recirculation Fraction {dimensionless}
  ,                                       !- Design Minimum Zone Ventilation Efficiency {dimensionless}
  Coincident;                             !- Sizing Option

OS:ZoneHVAC:EquipmentList,
  {71b64918-25f3-445f-8ff3-a3d8c4fdfc8f}, !- Handle
  Zone HVAC Equipment List 1,             !- Name
  {0ec90359-59a9-47b4-af0a-62f100bb40cb}, !- Thermal Zone
  ,                                       !- Load Distribution Scheme
  {c2965f9b-868f-42c8-a0c1-1695a3a372fd}, !- Zone Equipment 1
  1,                                      !- Zone Equipment Cooling Sequence 1
  1,                                      !- Zone Equipment Heating or No-Load Sequence 1
  {f9a3c1f8-8293-469b-9c2c-a445ac63b637}, !- Zone Equipment Sequential Cooling Fraction Schedule Name 1
  {77940adb-169b-4ad7-9bff-2cf04196740a}, !- Zone Equipment Sequential Heating Fraction Schedule Name 1
  {2fdee8e2-93d2-4b49-b248-6b2bbd858f80}, !- Zone Equipment 2
  2,                                      !- Zone Equipment Cooling Sequence 2
  2,                                      !- Zone Equipment Heating or No-Load Sequence 2
  {72a0fdb2-2760-4755-abb4-eeb26c4c7a09}, !- Zone Equipment Sequential Cooling Fraction Schedule Name 2
  {4220916d-5d7c-47e8-b03e-e2b59be28bbd}; !- Zone Equipment Sequential Heating Fraction Schedule Name 2

OS:AdditionalProperties,
  {5bf74764-d63d-44fc-9e5f-82c2d034fb39}, !- Handle
  {0ec90359-59a9-47b4-af0a-62f100bb40cb}, !- Object Name
  ObjectType,                             !- Feature Name 1
  String,                                 !- Feature Data Type 1
  conditioned space;                      !- Feature Value 1

OS:Space,
  {1c43ca33-ef6b-4ce4-a664-e185b1af7eb9}, !- Handle
  conditioned space 1,                    !- Name
  ,                                       !- Space Type Name
  ,                                       !- Default Construction Set Name
  ,                                       !- Default Schedule Set Name
  ,                                       !- Direction of Relative North {deg}
  ,                                       !- X Origin {m}
  ,                                       !- Y Origin {m}
  ,                                       !- Z Origin {m}
  ,                                       !- Building Story Name
  {0ec90359-59a9-47b4-af0a-62f100bb40cb}, !- Thermal Zone Name
  ,                                       !- Part of Total Floor Area
  ,                                       !- Design Specification Outdoor Air Object Name
  ,                                       !- Building Unit Name
  692.06373070848;                        !- Volume {m3}

OS:Schedule:Ruleset,
  {e9a74943-b99e-494a-8fa6-7db43e4ad024}, !- Handle
  heating setpoint,                       !- Name
  {263fac2c-6a5f-4aa7-9605-6ee6f3e984a6}, !- Schedule Type Limits Name
  {25a9bc05-1c95-4551-a4a4-c2fc8dd2e813}; !- Default Day Schedule Name

OS:Schedule:Day,
  {25a9bc05-1c95-4551-a4a4-c2fc8dd2e813}, !- Handle
  heating setpoint default day,           !- Name
  {263fac2c-6a5f-4aa7-9605-6ee6f3e984a6}, !- Schedule Type Limits Name
  ,                                       !- Interpolate to Timestep
  24,                                     !- Hour 1
  0,                                      !- Minute 1
  0;                                      !- Value Until Time 1

OS:Schedule:Rule,
  {0dbde924-8cda-452e-b5a8-918496ff4699}, !- Handle
  heating setpoint allday rule,           !- Name
  {e9a74943-b99e-494a-8fa6-7db43e4ad024}, !- Schedule Ruleset Name
  0,                                      !- Rule Order
  {b3f30109-c6cd-469c-8f26-2de00c19013a}, !- Day Schedule Name
  Yes,                                    !- Apply Sunday
  Yes,                                    !- Apply Monday
  Yes,                                    !- Apply Tuesday
  Yes,                                    !- Apply Wednesday
  Yes,                                    !- Apply Thursday
  Yes,                                    !- Apply Friday
  Yes,                                    !- Apply Saturday
  DateRange,                              !- Date Specification Type
  1,                                      !- Start Month
  1,                                      !- Start Day
  12,                                     !- End Month
  31;                                     !- End Day

OS:Schedule:Day,
  {b3f30109-c6cd-469c-8f26-2de00c19013a}, !- Handle
  heating setpoint day,                   !- Name
  {263fac2c-6a5f-4aa7-9605-6ee6f3e984a6}, !- Schedule Type Limits Name
  ,                                       !- Interpolate to Timestep
  24,                                     !- Hour 1
  0,                                      !- Minute 1
  20;                                     !- Value Until Time 1

OS:Schedule:Ruleset,
  {ccf72a8d-041a-4e87-ab05-2e4f07d222a9}, !- Handle
  cooling setpoint,                       !- Name
  {263fac2c-6a5f-4aa7-9605-6ee6f3e984a6}, !- Schedule Type Limits Name
  {27d772ca-47bb-4cd3-a759-cfaf4785098f}; !- Default Day Schedule Name

OS:Schedule:Day,
  {27d772ca-47bb-4cd3-a759-cfaf4785098f}, !- Handle
  cooling setpoint default day,           !- Name
  {263fac2c-6a5f-4aa7-9605-6ee6f3e984a6}, !- Schedule Type Limits Name
  ,                                       !- Interpolate to Timestep
  24,                                     !- Hour 1
  0,                                      !- Minute 1
  0;                                      !- Value Until Time 1

OS:Schedule:Rule,
  {b56c122a-966f-4c75-872d-99120d86049d}, !- Handle
  cooling setpoint allday rule,           !- Name
  {ccf72a8d-041a-4e87-ab05-2e4f07d222a9}, !- Schedule Ruleset Name
  0,                                      !- Rule Order
  {61485ca9-e519-4d8a-b059-9228e863791a}, !- Day Schedule Name
  Yes,                                    !- Apply Sunday
  Yes,                                    !- Apply Monday
  Yes,                                    !- Apply Tuesday
  Yes,                                    !- Apply Wednesday
  Yes,                                    !- Apply Thursday
  Yes,                                    !- Apply Friday
  Yes,                                    !- Apply Saturday
  DateRange,                              !- Date Specification Type
  1,                                      !- Start Month
  1,                                      !- Start Day
  12,                                     !- End Month
  31;                                     !- End Day

OS:Schedule:Day,
  {61485ca9-e519-4d8a-b059-9228e863791a}, !- Handle
  cooling setpoint day,                   !- Name
  {263fac2c-6a5f-4aa7-9605-6ee6f3e984a6}, !- Schedule Type Limits Name
  ,                                       !- Interpolate to Timestep
  24,                                     !- Hour 1
  0,                                      !- Minute 1
  25.5555555555556;                       !- Value Until Time 1

OS:ThermostatSetpoint:DualSetpoint,
  {4adacf0a-f8fb-4ae9-af28-06ef57ebdf72}, !- Handle
  conditioned space temperature setpoint, !- Name
  {e9a74943-b99e-494a-8fa6-7db43e4ad024}, !- Heating Setpoint Temperature Schedule Name
  {ccf72a8d-041a-4e87-ab05-2e4f07d222a9}, !- Cooling Setpoint Temperature Schedule Name
  0;                                      !- Temperature Difference Between Cutout And Setpoint {deltaC}

OS:ScheduleTypeLimits,
  {263fac2c-6a5f-4aa7-9605-6ee6f3e984a6}, !- Handle
  Temperature,                            !- Name
  ,                                       !- Lower Limit Value
  ,                                       !- Upper Limit Value
  Continuous,                             !- Numeric Type
  Temperature;                            !- Unit Type

OS:Surface,
  {0c8ab16e-48ce-4b8d-b42a-a24f08587a1c}, !- Handle
  Roof1,                                  !- Name
  RoofCeiling,                            !- Surface Type
  {e142108b-f3e1-410b-a564-faaeb809bf70}, !- Construction Name
  {188f0063-c2ac-47ab-b6cc-4ec581c5187f}, !- Space Name
  Outdoors,                               !- Outside Boundary Condition
  ,                                       !- Outside Boundary Condition Object
  SunExposed,                             !- Sun Exposure
  WindExposed,                            !- Wind Exposure
  ,                                       !- View Factor to Ground
  ,                                       !- Number of Vertices
  -26.9347048849634, 58.0557891618865, 2.4384, !- X,Y,Z Vertex 1 {m}
  -26.9347048849634, 46.7895631136661, 8.0715130241102, !- X,Y,Z Vertex 2 {m}
  -14.3386812381136, 46.7895631136661, 8.0715130241102, !- X,Y,Z Vertex 3 {m}
  -14.3386812381136, 58.0557891618865, 2.4384; !- X,Y,Z Vertex 4 {m}

OS:AdditionalProperties,
  {a6e3a696-35cc-4cd6-a90a-73135cf8a20c}, !- Handle
  {0c8ab16e-48ce-4b8d-b42a-a24f08587a1c}, !- Object Name
  Length,                                 !- Feature Name 1
  Double,                                 !- Feature Data Type 1
  41.325536899113608,                     !- Feature Value 1
  Width,                                  !- Feature Name 2
  Double,                                 !- Feature Data Type 2
  41.325536899113601,                     !- Feature Value 2
  Azimuth,                                !- Feature Name 3
  Integer,                                !- Feature Data Type 3
  0,                                      !- Feature Value 3
  Tilt,                                   !- Feature Name 4
  Double,                                 !- Feature Data Type 4
  0.5,                                    !- Feature Value 4
  SurfaceType,                            !- Feature Name 5
  String,                                 !- Feature Data Type 5
  Roof;                                   !- Feature Value 5

OS:ThermalZone,
  {a109cd39-bccc-4d5f-a5ae-856d36ebaad0}, !- Handle
  attic - vented,                         !- Name
  1,                                      !- Multiplier
  ,                                       !- Ceiling Height {m}
  356.389957095237,                       !- Volume {m3}
  ,                                       !- Floor Area {m2}
  ,                                       !- Zone Inside Convection Algorithm
  ,                                       !- Zone Outside Convection Algorithm
  ,                                       !- Zone Conditioning Equipment List Name
  {6ac98d7b-cfcf-497a-a851-772da0fa3ced}, !- Zone Air Inlet Port List
  {82570bc4-234a-4eac-8388-1e3ac8805e8b}, !- Zone Air Exhaust Port List
  {e0c743dc-421e-417b-9a22-03ca46bebe8b}, !- Zone Air Node Name
  {ab7ea686-1229-47fc-a565-f3c4922e9dbc}, !- Zone Return Air Port List
  ,                                       !- Primary Daylighting Control Name
  ,                                       !- Fraction of Zone Controlled by Primary Daylighting Control
  ,                                       !- Secondary Daylighting Control Name
  ,                                       !- Fraction of Zone Controlled by Secondary Daylighting Control
  ,                                       !- Illuminance Map Name
  ,                                       !- Group Rendering Name
  ,                                       !- Thermostat Name
  No;                                     !- Use Ideal Air Loads

OS:Node,
  {5cbdba95-87a2-4121-91c6-0ec7e69498fb}, !- Handle
  Node 2,                                 !- Name
  {e0c743dc-421e-417b-9a22-03ca46bebe8b}, !- Inlet Port
  ;                                       !- Outlet Port

OS:Connection,
  {e0c743dc-421e-417b-9a22-03ca46bebe8b}, !- Handle
  {a109cd39-bccc-4d5f-a5ae-856d36ebaad0}, !- Source Object
  11,                                     !- Outlet Port
  {5cbdba95-87a2-4121-91c6-0ec7e69498fb}, !- Target Object
  2;                                      !- Inlet Port

OS:PortList,
  {6ac98d7b-cfcf-497a-a851-772da0fa3ced}, !- Handle
  {a109cd39-bccc-4d5f-a5ae-856d36ebaad0}; !- HVAC Component

OS:PortList,
  {82570bc4-234a-4eac-8388-1e3ac8805e8b}, !- Handle
  {a109cd39-bccc-4d5f-a5ae-856d36ebaad0}; !- HVAC Component

OS:PortList,
  {ab7ea686-1229-47fc-a565-f3c4922e9dbc}, !- Handle
  {a109cd39-bccc-4d5f-a5ae-856d36ebaad0}; !- HVAC Component

OS:Sizing:Zone,
  {3def0dcf-8ff7-4576-9b74-faf641478422}, !- Handle
  {a109cd39-bccc-4d5f-a5ae-856d36ebaad0}, !- Zone or ZoneList Name
  SupplyAirTemperature,                   !- Zone Cooling Design Supply Air Temperature Input Method
  14,                                     !- Zone Cooling Design Supply Air Temperature {C}
  11.11,                                  !- Zone Cooling Design Supply Air Temperature Difference {deltaC}
  SupplyAirTemperature,                   !- Zone Heating Design Supply Air Temperature Input Method
  40,                                     !- Zone Heating Design Supply Air Temperature {C}
  11.11,                                  !- Zone Heating Design Supply Air Temperature Difference {deltaC}
  0.0085,                                 !- Zone Cooling Design Supply Air Humidity Ratio {kg-H2O/kg-air}
  0.008,                                  !- Zone Heating Design Supply Air Humidity Ratio {kg-H2O/kg-air}
  ,                                       !- Zone Heating Sizing Factor
  ,                                       !- Zone Cooling Sizing Factor
  DesignDay,                              !- Cooling Design Air Flow Method
  ,                                       !- Cooling Design Air Flow Rate {m3/s}
  ,                                       !- Cooling Minimum Air Flow per Zone Floor Area {m3/s-m2}
  ,                                       !- Cooling Minimum Air Flow {m3/s}
  ,                                       !- Cooling Minimum Air Flow Fraction
  DesignDay,                              !- Heating Design Air Flow Method
  ,                                       !- Heating Design Air Flow Rate {m3/s}
  ,                                       !- Heating Maximum Air Flow per Zone Floor Area {m3/s-m2}
  ,                                       !- Heating Maximum Air Flow {m3/s}
  ,                                       !- Heating Maximum Air Flow Fraction
  No,                                     !- Account for Dedicated Outdoor Air System
  NeutralSupplyAir,                       !- Dedicated Outdoor Air System Control Strategy
  autosize,                               !- Dedicated Outdoor Air Low Setpoint Temperature for Design {C}
  autosize,                               !- Dedicated Outdoor Air High Setpoint Temperature for Design {C}
  Sensible Load Only No Latent Load,      !- Zone Load Sizing Method
  HumidityRatioDifference,                !- Zone Latent Cooling Design Supply Air Humidity Ratio Input Method
  ,                                       !- Zone Dehumidification Design Supply Air Humidity Ratio {kgWater/kgDryAir}
  0.005,                                  !- Zone Cooling Design Supply Air Humidity Ratio Difference {kgWater/kgDryAir}
  HumidityRatioDifference,                !- Zone Latent Heating Design Supply Air Humidity Ratio Input Method
  ,                                       !- Zone Humidification Design Supply Air Humidity Ratio {kgWater/kgDryAir}
  0.005,                                  !- Zone Humidification Design Supply Air Humidity Ratio Difference {kgWater/kgDryAir}
  ,                                       !- Zone Humidistat Dehumidification Set Point Schedule Name
  ,                                       !- Zone Humidistat Humidification Set Point Schedule Name
  ,                                       !- Design Zone Air Distribution Effectiveness in Cooling Mode
  ,                                       !- Design Zone Air Distribution Effectiveness in Heating Mode
  ,                                       !- Design Zone Secondary Recirculation Fraction {dimensionless}
  ,                                       !- Design Minimum Zone Ventilation Efficiency {dimensionless}
  Coincident;                             !- Sizing Option

OS:ZoneHVAC:EquipmentList,
  {137429e0-46d4-4a60-8696-753e051ecf1d}, !- Handle
  Zone HVAC Equipment List 2,             !- Name
  {a109cd39-bccc-4d5f-a5ae-856d36ebaad0}; !- Thermal Zone

OS:AdditionalProperties,
  {3d7e84b6-c790-49f0-b5a3-de4da70166af}, !- Handle
  {a109cd39-bccc-4d5f-a5ae-856d36ebaad0}, !- Object Name
  ObjectType,                             !- Feature Name 1
  String,                                 !- Feature Data Type 1
  attic - vented;                         !- Feature Value 1

OS:Space,
  {188f0063-c2ac-47ab-b6cc-4ec581c5187f}, !- Handle
  attic - vented 1,                       !- Name
  ,                                       !- Space Type Name
  ,                                       !- Default Construction Set Name
  ,                                       !- Default Schedule Set Name
  ,                                       !- Direction of Relative North {deg}
  ,                                       !- X Origin {m}
  ,                                       !- Y Origin {m}
  ,                                       !- Z Origin {m}
  ,                                       !- Building Story Name
  {a109cd39-bccc-4d5f-a5ae-856d36ebaad0}, !- Thermal Zone Name
  ,                                       !- Part of Total Floor Area
  ,                                       !- Design Specification Outdoor Air Object Name
  ,                                       !- Building Unit Name
  356.389957095237;                       !- Volume {m3}

OS:Material,
  {d1067c8d-45e2-4c84-89b1-83b770eb30fe}, !- Handle
  asphalt or fiberglass shingles,         !- Name