
OS:Version,
  {d5164a4d-54cb-4104-8489-6f63cd949f81}, !- Handle
  3.10.0;                                 !- Version Identifier

OS:SimulationControl,
  {6d7eca17-c471-414f-895d-8eb3ec5e45fe}, !- Handle
  ,                                       !- Do Zone Sizing Calculation
  ,                                       !- Do System Sizing Calculation
  ,                                       !- Do Plant Sizing Calculation
  No;                                     !- Run Simulation for Sizing Periods

OS:Timestep,
  {c1649e85-8b7a-41ee-a764-7c2b41e78328}, !- Handle
  1;                                      !- Number of Timesteps per Hour

OS:ShadowCalculation,
  {ae40cb99-d761-4eda-a0f0-e2803b6fb0bb}, !- Handle
  PolygonClipping,                        !- Shading Calculation Method
  ,                                       !- Shading Calculation Update Frequency Method
  20,                                     !- Shading Calculation Update Frequency
  200,                                    !- Maximum Figures in Shadow Overlap Calculations
  ,                                       !- Polygon Clipping Algorithm
  512,                                    !- Pixel Counting Resolution
  ,                                       !- Sky Diffuse Modeling Algorithm
  No,                                     !- Output External Shading Calculation Results
  No,                                     !- Disable Self-Shading Within Shading Zone Groups
  No;                                     !- Disable Self-Shading From Shading Zone Groups to Other Zones

OS:SurfaceConvectionAlgorithm:Outside,
  {4207de46-8004-4691-92ff-70e15c36966a}, !- Handle
  DOE-2;                                  !- Algorithm

OS:SurfaceConvectionAlgorithm:Inside,
  {24ef6faf-2c6a-4aed-8c2e-17272c3618d8}, !- Handle
  TARP;                                   !- Algorithm

OS:ZoneCapacitanceMultiplier:ResearchSpecial,
  {3f20163f-25f8-451b-8b0f-ceb28b02cead}, !- Handle
  7,                                      !- Temperature Capacity Multiplier
  15,                                     !- Humidity Capacity Multiplier
  ;                                       !- Carbon Dioxide Capacity Multiplier

OS:ConvergenceLimits,
  {6b8797e3-755a-4ed6-a173-23c869f12e80}, !- Handle
  0;                                      !- Minimum System Timestep {minutes}

OS:RunPeriod,
  {b0eddfea-c3b8-462c-9ec3-3d63426a4317}, !- Handle
  Run Period 1,                           !- Name
  1,                                      !- Begin Month
  1,                                      !- Begin Day of Month
  12,                                     !- End Month
  31,                                     !- End Day of Month
  ,                                       !- Use Weather File Holidays and Special Days
  ,                                       !- Use Weather File Daylight Saving Period
  ,                                       !- Apply Weekend Holiday Rule
  ,                                       !- Use Weather File Rain Indicators
  ,                                       !- Use Weather File Snow Indicators
  ;                                       !- Number of Times Runperiod to be Repeated

OS:PerformancePrecisionTradeoffs,
  {2d6ec40c-a4f4-4fa8-a8a4-cb5f5c38d32a}, !- Handle
  ,                                       !- Use Coil Direct Solutions
  CarrollMRT;                             !- Zone Radiant Exchange Algorithm

OS:WeatherFile,
  {049943da-574b-4df1-9155-9236b3cc2218}, !- Handle
  Buffalo Niagara Intl Ap,                !- City
  NY,                                     !- State Province Region
  USA,                                    !- Country
  TMY3,                                   !- Data Source
  725280,                                 !- WMO Number
  42.93,                                  !- Latitude {deg}
  -78.73,                                 !- Longitude {deg}
  -5,                                     !- Time Zone {hr}
  215,                                    !- Elevation {m}
  /Users/nmoore/github/urbanopt-example-geojson-project/example_project/weather/USA_NY_Buffalo-Greater.Buffalo.Intl.AP.725280_TMY3.epw, !- Url
  6B50E0FF,                               !- Checksum
  ,                                       !- Start Date Actual Year
  Sunday;                                 !- Start Day of Week

OS:YearDescription,
  {3d642df9-dc6b-4297-bbde-d2442f9efb04}, !- Handle
  2007,                                   !- Calendar Year
  ,                                       !- Day of Week for Start Day
  ;                                       !- Is Leap Year

OS:Site,
  {32c3e7e0-98bc-4221-a6b4-92589d96d5f5}, !- Handle
  Buffalo Niagara Intl Ap_NY,             !- Name
  42.93,                                  !- Latitude {deg}
  -78.73,                                 !- Longitude {deg}
  -5,                                     !- Time Zone {hr}
  215,                                    !- Elevation {m}
  Suburbs,                                !- Terrain
  Yes;                                    !- Keep Site Location Information

OS:RunPeriodControl:DaylightSavingTime,
  {e0224bcf-c829-4b60-910e-9c036a0876dc}, !- Handle
  Mar 12,                                 !- Start Date
  Nov 5;                                  !- End Date

OS:Site:GroundTemperature:Shallow,
  {b0dc5f2b-d650-49af-9871-f52add2aca4d}, !- Handle
  4.30207395723828,                       !- January Surface Ground Temperature {C}
  2.29327249652502,                       !- February Surface Ground Temperature {C}
  2.13240047156047,                       !- March Surface Ground Temperature {C}
  3.08567940719286,                       !- April Surface Ground Temperature {C}
  6.91256312497526,                       !- May Surface Ground Temperature {C}
  10.7216195949507,                       !- June Surface Ground Temperature {C}
  14.0238679822574,                       !- July Surface Ground Temperature {C}
  16.1157611184724,                       !- August Surface Ground Temperature {C}
  16.2934789303462,                       !- September Surface Ground Temperature {C}
  14.5920754632847,                       !- October Surface Ground Temperature {C}
  11.374036348653,                        !- November Surface Ground Temperature {C}
  7.68182621661674;                       !- December Surface Ground Temperature {C}

OS:ThermalZone,
  {acbf3018-b9cd-46f6-ac09-6ceb6aa0923d}, !- Handle
  conditioned space,                      !- Name
  1,                                      !- Multiplier
  ,                                       !- Ceiling Height {m}
  692.06373070848,                        !- Volume {m3}
  ,                                       !- Floor Area {m2}
  ,                                       !- Zone Inside Convection Algorithm
  ,                                       !- Zone Outside Convection Algorithm
  ,                                       !- Zone Conditioning Equipment List Name
  {f578f52e-4b3c-42d8-b725-fd794cab96ac}, !- Zone Air Inlet Port List
  {ed744b74-cf69-485f-a1e5-5af9afff65ac}, !- Zone Air Exhaust Port List
  {04d57684-dcf2-422a-bf8d-feae19bf5430}, !- Zone Air Node Name
  {f927aa0f-627f-4cc2-8ddc-b633db73fff1}, !- Zone Return Air Port List
  ,                                       !- Primary Daylighting Control Name
  ,                                       !- Fraction of Zone Controlled by Primary Daylighting Control
  ,                                       !- Secondary Daylighting Control Name
  ,                                       !- Fraction of Zone Controlled by Secondary Daylighting Control
  ,                                       !- Illuminance Map Name
  ,                                       !- Group Rendering Name
  {e2a68dd9-718f-497c-ad06-70066118ef8e}, !- Thermostat Name
  No;                                     !- Use Ideal Air Loads

OS:Node,
  {120170b5-4fdc-454a-809c-47fc5f511cdf}, !- Handle
  Node 1,                                 !- Name
  {04d57684-dcf2-422a-bf8d-feae19bf5430}, !- Inlet Port
  ;                                       !- Outlet Port

OS:Connection,
  {04d57684-dcf2-422a-bf8d-feae19bf5430}, !- Handle
  {acbf3018-b9cd-46f6-ac09-6ceb6aa0923d}, !- Source Object
  11,                                     !- Outlet Port
  {120170b5-4fdc-454a-809c-47fc5f511cdf}, !- Target Object
  2;                                      !- Inlet Port

OS:PortList,
  {f578f52e-4b3c-42d8-b725-fd794cab96ac}, !- Handle
  {acbf3018-b9cd-46f6-ac09-6ceb6aa0923d}, !- HVAC Component
  {eb3a9308-e36a-46db-9713-d505f0969ef7}; !- Port 1

OS:PortList,
  {ed744b74-cf69-485f-a1e5-5af9afff65ac}, !- Handle
  {acbf3018-b9cd-46f6-ac09-6ceb6aa0923d}; !- HVAC Component

OS:PortList,
  {f927aa0f-627f-4cc2-8ddc-b633db73fff1}, !- Handle
  {acbf3018-b9cd-46f6-ac09-6ceb6aa0923d}, !- HVAC Component
  {5cadf399-033f-48b5-8ba4-7b2c800510f1}; !- Port 1

OS:Sizing:Zone,
  {ac4fac42-5d61-4d4d-ad54-047bc4a8f625}, !- Handle
  {acbf3018-b9cd-46f6-ac09-6ceb6aa0923d}, !- Zone or ZoneList Name
  SupplyAirTemperature,                   !- Zone Cooling Design Supply Air Temperature Input Method
  14,                                     !- Zone Cooling Design Supply Air Temperature {C}
  11.11,                                  !- Zone Cooling Design Supply Air Temperature Difference {deltaC}
  SupplyAirTemperature,                   !- Zone Heating Design Supply Air Temperature Input Method
  40,                                     !- Zone Heating Design Supply Air Temperature {C}
  11.11,                                  !- Zone Heating Design Supply Air Temperature Difference {deltaC}
  0.0085,                                 !- Zone Cooling Design Supply Air Humidity Ratio {kg-H2O/kg-air}
  0.008,                                  !- Zone Heating Design Supply Air Humidity Ratio {kg-H2O/kg-air}
  ,                                       !- Zone Heating Sizing Factor
  ,                                       !- Zone Cooling Sizing Factor
  DesignDay,                              !- Cooling Design Air Flow Method
  ,                                       !- Cooling Design Air Flow Rate {m3/s}
  ,                                       !- Cooling Minimum Air Flow per Zone Floor Area {m3/s-m2}
  ,                                       !- Cooling Minimum Air Flow {m3/s}
  ,                                       !- Cooling Minimum Air Flow Fraction
  DesignDay,                              !- Heating Design Air Flow Method
  ,                                       !- Heating Design Air Flow Rate {m3/s}
  ,                                       !- Heating Maximum Air Flow per Zone Floor Area {m3/s-m2}
  ,                                       !- Heating Maximum Air Flow {m3/s}
  ,                                       !- Heating Maximum Air Flow Fraction
  No,                                     !- Account for Dedicated Outdoor Air System
  NeutralSupplyAir,                       !- Dedicated Outdoor Air System Control Strategy
  autosize,                               !- Dedicated Outdoor Air Low Setpoint Temperature for Design {C}
  autosize,                               !- Dedicated Outdoor Air High Setpoint Temperature for Design {C}
  Sensible Load Only No Latent Load,      !- Zone Load Sizing Method
  HumidityRatioDifference,                !- Zone Latent Cooling Design Supply Air Humidity Ratio Input Method
  ,                                       !- Zone Dehumidification Design Supply Air Humidity Ratio {kgWater/kgDryAir}
  0.005,                                  !- Zone Cooling Design Supply Air Humidity Ratio Difference {kgWater/kgDryAir}
  HumidityRatioDifference,                !- Zone Latent Heating Design Supply Air Humidity Ratio Input Method
  ,                                       !- Zone Humidification Design Supply Air Humidity Ratio {kgWater/kgDryAir}
  0.005,                                  !- Zone Humidification Design Supply Air Humidity Ratio Difference {kgWater/kgDryAir}
  ,                                       !- Zone Humidistat Dehumidification Set Point Schedule Name
  ,                                       !- Zone Humidistat Humidification Set Point Schedule Name
  ,                                       !- Design Zone Air Distribution Effectiveness in Cooling Mode
  ,                                       !- Design Zone Air Distribution Effectiveness in Heating Mode
  ,                                       !- Design Zone Secondary Recirculation Fraction {dimensionless}
  ,                                       !- Design Minimum Zone Ventilation Efficiency {dimensionless}
  Coincident;                             !- Sizing Option

OS:ZoneHVAC:EquipmentList,
  {cf37c53e-c9c8-4074-ac27-236273d26a5b}, !- Handle
  Zone HVAC Equipment List 1,             !- Name
  {acbf3018-b9cd-46f6-ac09-6ceb6aa0923d}, !- Thermal Zone
  ,                                       !- Load Distribution Scheme
  {5123d266-f61e-497b-98d2-9b6f85de96f4}, !- Zone Equipment 1
  1,                                      !- Zone Equipment Cooling Sequence 1
  1,                                      !- Zone Equipment Heating or No-Load Sequence 1
  {c0d4b22c-4aea-40fa-89d0-cbd750d949ec}, !- Zone Equipment Sequential Cooling Fraction Schedule Name 1
  {14da355d-c5e5-43da-a1cc-5531aac2bddc}; !- Zone Equipment Sequential Heating Fraction Schedule Name 1

OS:AdditionalProperties,
  {cf20c6ff-0a53-418e-99f3-cfff6bad99d9}, !- Handle
  {acbf3018-b9cd-46f6-ac09-6ceb6aa0923d}, !- Object Name
  ObjectType,                             !- Feature Name 1
  String,                                 !- Feature Data Type 1
  conditioned space;                      !- Feature Value 1

OS:Space,
  {7fad15bc-eb61-4ce6-beb1-43a971617edb}, !- Handle
  conditioned space 1,                    !- Name
  ,                                       !- Space Type Name
  ,                                       !- Default Construction Set Name
  ,                                       !- Default Schedule Set Name
  ,                                       !- Direction of Relative North {deg}
  ,                                       !- X Origin {m}
  ,                                       !- Y Origin {m}
  ,                                       !- Z Origin {m}
  ,                                       !- Building Story Name
  {acbf3018-b9cd-46f6-ac09-6ceb6aa0923d}, !- Thermal Zone Name
  ,                                       !- Part of Total Floor Area
  ,                                       !- Design Specification Outdoor Air Object Name
  ,                                       !- Building Unit Name
  692.06373070848;                        !- Volume {m3}

OS:Schedule:Ruleset,
  {0629ecaf-70c0-4e5f-8026-419e7f3af490}, !- Handle
  heating setpoint,                       !- Name
  {41846bb4-daa1-44f8-9184-5448c039f06b}, !- Schedule Type Limits Name
  {94fa0363-0598-422d-8ddb-cbd79973dea1}; !- Default Day Schedule Name

OS:Schedule:Day,
  {94fa0363-0598-422d-8ddb-cbd79973dea1}, !- Handle
  heating setpoint default day,           !- Name
  {41846bb4-daa1-44f8-9184-5448c039f06b}, !- Schedule Type Limits Name
  ,                                       !- Interpolate to Timestep
  24,                                     !- Hour 1
  0,                                      !- Minute 1
  0;                                      !- Value Until Time 1

OS:Schedule:Rule,
  {7bd2e986-e47a-46f7-b313-96a471635c52}, !- Handle
  heating setpoint allday rule,           !- Name
  {0629ecaf-70c0-4e5f-8026-419e7f3af490}, !- Schedule Ruleset Name
  0,                                      !- Rule Order
  {f58ebcc4-8b5d-4970-a0f0-9f22be73d9d2}, !- Day Schedule Name
  Yes,                                    !- Apply Sunday
  Yes,                                    !- Apply Monday
  Yes,                                    !- Apply Tuesday
  Yes,                                    !- Apply Wednesday
  Yes,                                    !- Apply Thursday
  Yes,                                    !- Apply Friday
  Yes,                                    !- Apply Saturday
  DateRange,                              !- Date Specification Type
  1,                                      !- Start Month
  1,                                      !- Start Day
  12,                                     !- End Month
  31;                                     !- End Day

OS:Schedule:Day,
  {f58ebcc4-8b5d-4970-a0f0-9f22be73d9d2}, !- Handle
  heating setpoint day,                   !- Name
  {41846bb4-daa1-44f8-9184-5448c039f06b}, !- Schedule Type Limits Name
  ,                                       !- Interpolate to Timestep
  24,                                     !- Hour 1
  0,                                      !- Minute 1
  20;                                     !- Value Until Time 1

OS:Schedule:Ruleset,
  {cf57ff02-e8a4-4ac5-9c4f-046a0023d7e8}, !- Handle
  cooling setpoint,                       !- Name
  {41846bb4-daa1-44f8-9184-5448c039f06b}, !- Schedule Type Limits Name
  {d3af5a1a-3a93-4b38-9cc7-5ffde5172541}; !- Default Day Schedule Name

OS:Schedule:Day,
  {d3af5a1a-3a93-4b38-9cc7-5ffde5172541}, !- Handle
  cooling setpoint default day,           !- Name
  {41846bb4-daa1-44f8-9184-5448c039f06b}, !- Schedule Type Limits Name
  ,                                       !- Interpolate to Timestep
  24,                                     !- Hour 1
  0,                                      !- Minute 1
  0;                                      !- Value Until Time 1

OS:Schedule:Rule,
  {0771b738-a4c1-450b-bd28-0e1db99ae15b}, !- Handle
  cooling setpoint allday rule,           !- Name
  {cf57ff02-e8a4-4ac5-9c4f-046a0023d7e8}, !- Schedule Ruleset Name
  0,                                      !- Rule Order
  {65a9c53f-9d35-40df-a4c4-436a46f7d9f1}, !- Day Schedule Name
  Yes,                                    !- Apply Sunday
  Yes,                                    !- Apply Monday
  Yes,                                    !- Apply Tuesday
  Yes,                                    !- Apply Wednesday
  Yes,                                    !- Apply Thursday
  Yes,                                    !- Apply Friday
  Yes,                                    !- Apply Saturday
  DateRange,                              !- Date Specification Type
  1,                                      !- Start Month
  1,                                      !- Start Day
  12,                                     !- End Month
  31;                                     !- End Day

OS:Schedule:Day,
  {65a9c53f-9d35-40df-a4c4-436a46f7d9f1}, !- Handle
  cooling setpoint day,                   !- Name
  {41846bb4-daa1-44f8-9184-5448c039f06b}, !- Schedule Type Limits Name
  ,                                       !- Interpolate to Timestep
  24,                                     !- Hour 1
  0,                                      !- Minute 1
  25.5555555555556;                       !- Value Until Time 1

OS:ThermostatSetpoint:DualSetpoint,
  {e2a68dd9-718f-497c-ad06-70066118ef8e}, !- Handle
  conditioned space temperature setpoint, !- Name
  {0629ecaf-70c0-4e5f-8026-419e7f3af490}, !- Heating Setpoint Temperature Schedule Name
  {cf57ff02-e8a4-4ac5-9c4f-046a0023d7e8}, !- Cooling Setpoint Temperature Schedule Name
  0;                                      !- Temperature Difference Between Cutout And Setpoint {deltaC}

OS:ScheduleTypeLimits,
  {41846bb4-daa1-44f8-9184-5448c039f06b}, !- Handle
  Temperature,                            !- Name
  ,                                       !- Lower Limit Value
  ,                                       !- Upper Limit Value
  Continuous,                             !- Numeric Type
  Temperature;                            !- Unit Type

OS:Surface,
  {68b12348-efab-46d4-a67d-a6b2dc76eda9}, !- Handle
  Roof1,                                  !- Name
  RoofCeiling,                            !- Surface Type
  {f3c0369b-953e-416b-a249-0d81a7bd53f9}, !- Construction Name
  {f4a49fd9-30d8-477d-b4fa-a6196417627e}, !- Space Name
  Outdoors,                               !- Outside Boundary Condition
  ,                                       !- Outside Boundary Condition Object
  SunExposed,                             !- Sun Exposure
  WindExposed,                            !- Wind Exposure
  ,                                       !- View Factor to Ground
  ,                                       !- Number of Vertices
  9.8030170292795, 22.3990406761293, 2.4384, !- X,Y,Z Vertex 1 {m}
  9.8030170292795, 11.1328146279089, 8.0715130241102, !- X,Y,Z Vertex 2 {m}
  22.3990406761293, 11.1328146279089, 8.0715130241102, !- X,Y,Z Vertex 3 {m}
  22.3990406761293, 22.3990406761293, 2.4384; !- X,Y,Z Vertex 4 {m}

OS:AdditionalProperties,
  {583c040d-9f45-4d1f-9f1f-1bbdcefe2c2d}, !- Handle
  {68b12348-efab-46d4-a67d-a6b2dc76eda9}, !- Object Name
  Length,                                 !- Feature Name 1
  Double,                                 !- Feature Data Type 1
  41.325536899113608,                     !- Feature Value 1
  Width,                                  !- Feature Name 2
  Double,                                 !- Feature Data Type 2
  41.325536899113601,                     !- Feature Value 2
  Azimuth,                                !- Feature Name 3
  Integer,                                !- Feature Data Type 3
  0,                                      !- Feature Value 3
  Tilt,                                   !- Feature Name 4
  Double,                                 !- Feature Data Type 4
  0.5,                                    !- Feature Value 4
  SurfaceType,                            !- Feature Name 5
  String,                                 !- Feature Data Type 5
  Roof;                                   !- Feature Value 5

OS:ThermalZone,
  {7bb037fe-21f4-4563-ad1b-c22e1cc6a07b}, !- Handle
  attic - vented,                         !- Name
  1,                                      !- Multiplier
  ,                                       !- Ceiling Height {m}
  356.390921899745,                       !- Volume {m3}
  ,                                       !- Floor Area {m2}
  ,                                       !- Zone Inside Convection Algorithm
  ,                                       !- Zone Outside Convection Algorithm
  ,                                       !- Zone Conditioning Equipment List Name
  {d981cb16-7ecb-473b-af6a-527867492994}, !- Zone Air Inlet Port List
  {a242d1c9-b961-4c85-9bb9-80f40bbaf5d3}, !- Zone Air Exhaust Port List
  {9260229f-f04f-4a92-84de-559752adcbe6}, !- Zone Air Node Name
  {44c38108-9dc9-487d-bb5e-f7d57332b62a}, !- Zone Return Air Port List
  ,                                       !- Primary Daylighting Control Name
  ,                                       !- Fraction of Zone Controlled by Primary Daylighting Control
  ,                                       !- Secondary Daylighting Control Name
  ,                                       !- Fraction of Zone Controlled by Secondary Daylighting Control
  ,                                       !- Illuminance Map Name
  ,                                       !- Group Rendering Name
  ,                                       !- Thermostat Name
  No;                                     !- Use Ideal Air Loads

OS:Node,
  {78eae059-2608-4c72-be84-fc5f7c88cabd}, !- Handle
  Node 2,                                 !- Name
  {9260229f-f04f-4a92-84de-559752adcbe6}, !- Inlet Port
  ;                                       !- Outlet Port

OS:Connection,
  {9260229f-f04f-4a92-84de-559752adcbe6}, !- Handle
  {7bb037fe-21f4-4563-ad1b-c22e1cc6a07b}, !- Source Object
  11,                                     !- Outlet Port
  {78eae059-2608-4c72-be84-fc5f7c88cabd}, !- Target Object
  2;                                      !- Inlet Port

OS:PortList,
  {d981cb16-7ecb-473b-af6a-527867492994}, !- Handle
  {7bb037fe-21f4-4563-ad1b-c22e1cc6a07b}; !- HVAC Component

OS:PortList,
  {a242d1c9-b961-4c85-9bb9-80f40bbaf5d3}, !- Handle
  {7bb037fe-21f4-4563-ad1b-c22e1cc6a07b}; !- HVAC Component

OS:PortList,
  {44c38108-9dc9-487d-bb5e-f7d57332b62a}, !- Handle
  {7bb037fe-21f4-4563-ad1b-c22e1cc6a07b}; !- HVAC Component

OS:Sizing:Zone,
  {6127b711-b469-410e-89d5-132989b79e31}, !- Handle
  {7bb037fe-21f4-4563-ad1b-c22e1cc6a07b}, !- Zone or ZoneList Name
  SupplyAirTemperature,                   !- Zone Cooling Design Supply Air Temperature Input Method
  14,                                     !- Zone Cooling Design Supply Air Temperature {C}
  11.11,                                  !- Zone Cooling Design Supply Air Temperature Difference {deltaC}
  SupplyAirTemperature,                   !- Zone Heating Design Supply Air Temperature Input Method
  40,                                     !- Zone Heating Design Supply Air Temperature {C}
  11.11,                                  !- Zone Heating Design Supply Air Temperature Difference {deltaC}
  0.0085,                                 !- Zone Cooling Design Supply Air Humidity Ratio {kg-H2O/kg-air}
  0.008,                                  !- Zone Heating Design Supply Air Humidity Ratio {kg-H2O/kg-air}
  ,                                       !- Zone Heating Sizing Factor
  ,                                       !- Zone Cooling Sizing Factor
  DesignDay,                              !- Cooling Design Air Flow Method
  ,                                       !- Cooling Design Air Flow Rate {m3/s}
  ,                                       !- Cooling Minimum Air Flow per Zone Floor Area {m3/s-m2}
  ,                                       !- Cooling Minimum Air Flow {m3/s}
  ,                                       !- Cooling Minimum Air Flow Fraction
  DesignDay,                              !- Heating Design Air Flow Method
  ,                                       !- Heating Design Air Flow Rate {m3/s}
  ,                                       !- Heating Maximum Air Flow per Zone Floor Area {m3/s-m2}
  ,                                       !- Heating Maximum Air Flow {m3/s}
  ,                                       !- Heating Maximum Air Flow Fraction
  No,                                     !- Account for Dedicated Outdoor Air System
  NeutralSupplyAir,                       !- Dedicated Outdoor Air System Control Strategy
  autosize,                               !- Dedicated Outdoor Air Low Setpoint Temperature for Design {C}
  autosize,                               !- Dedicated Outdoor Air High Setpoint Temperature for Design {C}
  Sensible Load Only No Latent Load,      !- Zone Load Sizing Method
  HumidityRatioDifference,                !- Zone Latent Cooling Design Supply Air Humidity Ratio Input Method
  ,                                       !- Zone Dehumidification Design Supply Air Humidity Ratio {kgWater/kgDryAir}
  0.005,                                  !- Zone Cooling Design Supply Air Humidity Ratio Difference {kgWater/kgDryAir}
  HumidityRatioDifference,                !- Zone Latent Heating Design Supply Air Humidity Ratio Input Method
  ,                                       !- Zone Humidification Design Supply Air Humidity Ratio {kgWater/kgDryAir}
  0.005,                                  !- Zone Humidification Design Supply Air Humidity Ratio Difference {kgWater/kgDryAir}
  ,                                       !- Zone Humidistat Dehumidification Set Point Schedule Name
  ,                                       !- Zone Humidistat Humidification Set Point Schedule Name
  ,                                       !- Design Zone Air Distribution Effectiveness in Cooling Mode
  ,                                       !- Design Zone Air Distribution Effectiveness in Heating Mode
  ,                                       !- Design Zone Secondary Recirculation Fraction {dimensionless}
  ,                                       !- Design Minimum Zone Ventilation Efficiency {dimensionless}
  Coincident;                             !- Sizing Option

OS:ZoneHVAC:EquipmentList,
  {c1c99aae-4eb8-4249-b484-778a2a422b24}, !- Handle
  Zone HVAC Equipment List 2,             !- Name
  {7bb037fe-21f4-4563-ad1b-c22e1cc6a07b}; !- Thermal Zone

OS:AdditionalProperties,
  {4704cbdf-c1b6-4bfd-896a-75425cba9f64}, !- Handle
  {7bb037fe-21f4-4563-ad1b-c22e1cc6a07b}, !- Object Name
  ObjectType,                             !- Feature Name 1
  String,                                 !- Feature Data Type 1
  attic - vented;                         !- Feature Value 1

OS:Space,
  {f4a49fd9-30d8-477d-b4fa-a6196417627e}, !- Handle
  attic - vented 1,                       !- Name
  ,                                       !- Space Type Name
  ,                                       !- Default Construction Set Name
  ,                                       !- Default Schedule Set Name
  ,                                       !- Direction of Relative North {deg}
  ,                                       !- X Origin {m}
  ,                                       !- Y Origin {m}
  ,                                       !- Z Origin {m}
  ,                                       !- Building Story Name
  {7bb037fe-21f4-4563-ad1b-c22e1cc6a07b}, !- Thermal Zone Name
  ,                                       !- Part of Total Floor Area
  ,                                       !- Design Specification Outdoor Air Object Name
  ,                                       !- Building Unit Name
  356.390921899745;                       !- Volume {m3}

OS:Material,
  {2acdd9e3-9feb-4ac6-999c-4bb7b543562d}, !- Handle
  asphalt or fiberglass shingles,         !- Name
  Rough,                                  !- Roughness
  0.00635,                                !- Thickness {m}
  0.162714,                               !- Conductivity {W/m-K}
  1121.4,                                 !- Density {kg/m3}
  1465.45,                                !- Specific Heat {J/kg-K}
  0.9,                                    !- Thermal Absorptance
  0.85,                                   !- Solar Absorptance