
OS:Version,
  {446b9e75-0f78-43c4-a755-b70ee9ebee92}, !- Handle
  3.9.0;                                  !- Version Identifier

OS:SimulationControl,
  {f3b4ff54-3504-4bb7-9153-751770625583}, !- Handle
  ,                                       !- Do Zone Sizing Calculation
  ,                                       !- Do System Sizing Calculation
  ,                                       !- Do Plant Sizing Calculation
  No;                                     !- Run Simulation for Sizing Periods

OS:Timestep,
  {6af152f7-ec73-4c36-823d-97a6c437e672}, !- Handle
  1;                                      !- Number of Timesteps per Hour

OS:ShadowCalculation,
  {c2b194d1-e437-4749-9607-8f4740599cb2}, !- Handle
  PolygonClipping,                        !- Shading Calculation Method
  ,                                       !- Shading Calculation Update Frequency Method
  20,                                     !- Shading Calculation Update Frequency
  200,                                    !- Maximum Figures in Shadow Overlap Calculations
  ,                                       !- Polygon Clipping Algorithm
  512,                                    !- Pixel Counting Resolution
  ,                                       !- Sky Diffuse Modeling Algorithm
  No,                                     !- Output External Shading Calculation Results
  No,                                     !- Disable Self-Shading Within Shading Zone Groups
  No;                                     !- Disable Self-Shading From Shading Zone Groups to Other Zones

OS:SurfaceConvectionAlgorithm:Outside,
  {d1b9cfbb-67a7-4430-946e-12b63f213cee}, !- Handle
  DOE-2;                                  !- Algorithm

OS:SurfaceConvectionAlgorithm:Inside,
  {c25fc1eb-6d67-4751-860a-4e6d3000b6b9}, !- Handle
  TARP;                                   !- Algorithm

OS:ZoneCapacitanceMultiplier:ResearchSpecial,
  {f69b809a-81df-4e7b-9108-27c9d19718ca}, !- Handle
  7,                                      !- Temperature Capacity Multiplier
  15,                                     !- Humidity Capacity Multiplier
  ;                                       !- Carbon Dioxide Capacity Multiplier

OS:ConvergenceLimits,
  {2be1b909-c703-4df7-9038-d0547bcc3400}, !- Handle
  0;                                      !- Minimum System Timestep {minutes}

OS:RunPeriod,
  {cc0c5a26-e383-4e9b-a8b8-ca3b79ae44a2}, !- Handle
  Run Period 1,                           !- Name
  1,                                      !- Begin Month
  1,                                      !- Begin Day of Month
  12,                                     !- End Month
  31,                                     !- End Day of Month
  ,                                       !- Use Weather File Holidays and Special Days
  ,                                       !- Use Weather File Daylight Saving Period
  ,                                       !- Apply Weekend Holiday Rule
  ,                                       !- Use Weather File Rain Indicators
  ,                                       !- Use Weather File Snow Indicators
  ;                                       !- Number of Times Runperiod to be Repeated

OS:PerformancePrecisionTradeoffs,
  {ae98c3d3-0f95-4bc0-960c-ed53ccee604e}, !- Handle
  ,                                       !- Use Coil Direct Solutions
  CarrollMRT;                             !- Zone Radiant Exchange Algorithm

OS:WeatherFile,
  {d974dd90-7cb6-463c-8774-0657cdae05d6}, !- Handle
  Buffalo Niagara Intl Ap,                !- City
  NY,                                     !- State Province Region
  USA,                                    !- Country
  TMY3,                                   !- Data Source
  725280,                                 !- WMO Number
  42.93,                                  !- Latitude {deg}
  -78.73,                                 !- Longitude {deg}
  -5,                                     !- Time Zone {hr}
  215,                                    !- Elevation {m}
  /Users/nmoore/github/urbanopt-example-geojson-project/example_project/weather/USA_NY_Buffalo-Greater.Buffalo.Intl.AP.725280_TMY3.epw, !- Url
  6B50E0FF,                               !- Checksum
  ,                                       !- Start Date Actual Year
  Sunday;                                 !- Start Day of Week

OS:YearDescription,
  {d0723df0-0d28-4d6f-b492-faef8fd96258}, !- Handle
  2007,                                   !- Calendar Year
  ,                                       !- Day of Week for Start Day
  ;                                       !- Is Leap Year

OS:Site,
  {851406bc-caad-4285-a271-316a2d324792}, !- Handle
  Buffalo Niagara Intl Ap_NY,             !- Name
  42.93,                                  !- Latitude {deg}
  -78.73,                                 !- Longitude {deg}
  -5,                                     !- Time Zone {hr}
  215,                                    !- Elevation {m}
  Suburbs,                                !- Terrain
  Yes;                                    !- Keep Site Location Information

OS:RunPeriodControl:DaylightSavingTime,
  {de9aec0c-4b7c-4bfa-9f4c-d6cc464fecad}, !- Handle
  Mar 12,                                 !- Start Date
  Nov 5;                                  !- End Date

OS:Site:GroundTemperature:Shallow,
  {9e17de81-00c3-4862-99d2-2e5b80befd19}, !- Handle
  4.30207395723828,                       !- January Surface Ground Temperature {C}
  2.29327249652502,                       !- February Surface Ground Temperature {C}
  2.13240047156047,                       !- March Surface Ground Temperature {C}
  3.08567940719286,                       !- April Surface Ground Temperature {C}
  6.91256312497526,                       !- May Surface Ground Temperature {C}
  10.7216195949507,                       !- June Surface Ground Temperature {C}
  14.0238679822574,                       !- July Surface Ground Temperature {C}
  16.1157611184724,                       !- August Surface Ground Temperature {C}
  16.2934789303462,                       !- September Surface Ground Temperature {C}
  14.5920754632847,                       !- October Surface Ground Temperature {C}
  11.374036348653,                        !- November Surface Ground Temperature {C}
  7.68182621661674;                       !- December Surface Ground Temperature {C}

OS:ThermalZone,
  {75dbceee-6d25-4e4e-aa4e-bbc1eb8bf62f}, !- Handle
  conditioned space,                      !- Name
  1,                                      !- Multiplier
  ,                                       !- Ceiling Height {m}
  692.06373070848,                        !- Volume {m3}
  ,                                       !- Floor Area {m2}
  ,                                       !- Zone Inside Convection Algorithm
  ,                                       !- Zone Outside Convection Algorithm
  ,                                       !- Zone Conditioning Equipment List Name
  {4b67e6fe-99b3-4e27-9636-8bbffac00b36}, !- Zone Air Inlet Port List
  {8cd357d2-dec3-4be8-8ef1-36ffb202f97c}, !- Zone Air Exhaust Port List
  {fff95d7f-f24c-4413-9971-e603b34abfc8}, !- Zone Air Node Name
  {6686c3c4-62d6-47d4-98b7-959d89e79d74}, !- Zone Return Air Port List
  ,                                       !- Primary Daylighting Control Name
  ,                                       !- Fraction of Zone Controlled by Primary Daylighting Control
  ,                                       !- Secondary Daylighting Control Name
  ,                                       !- Fraction of Zone Controlled by Secondary Daylighting Control
  ,                                       !- Illuminance Map Name
  ,                                       !- Group Rendering Name
  {a2be2ea4-b005-400c-b306-30533c39865d}, !- Thermostat Name
  No;                                     !- Use Ideal Air Loads

OS:Node,
  {3fd70573-5096-4036-b134-8f86a701d78c}, !- Handle
  Node 1,                                 !- Name
  {fff95d7f-f24c-4413-9971-e603b34abfc8}, !- Inlet Port
  ;                                       !- Outlet Port

OS:Connection,
  {fff95d7f-f24c-4413-9971-e603b34abfc8}, !- Handle
  {75dbceee-6d25-4e4e-aa4e-bbc1eb8bf62f}, !- Source Object
  11,                                     !- Outlet Port
  {3fd70573-5096-4036-b134-8f86a701d78c}, !- Target Object
  2;                                      !- Inlet Port

OS:PortList,
  {4b67e6fe-99b3-4e27-9636-8bbffac00b36}, !- Handle
  {75dbceee-6d25-4e4e-aa4e-bbc1eb8bf62f}, !- HVAC Component
  {1fa6e060-53dc-4e5e-8e9e-134f975c2a25}; !- Port 1

OS:PortList,
  {8cd357d2-dec3-4be8-8ef1-36ffb202f97c}, !- Handle
  {75dbceee-6d25-4e4e-aa4e-bbc1eb8bf62f}; !- HVAC Component

OS:PortList,
  {6686c3c4-62d6-47d4-98b7-959d89e79d74}, !- Handle
  {75dbceee-6d25-4e4e-aa4e-bbc1eb8bf62f}, !- HVAC Component
  {265f51b6-6535-4e10-b6e3-8716014365f2}; !- Port 1

OS:Sizing:Zone,
  {c008a8fe-0baf-4af4-9921-2d2c5e93eacf}, !- Handle
  {75dbceee-6d25-4e4e-aa4e-bbc1eb8bf62f}, !- Zone or ZoneList Name
  SupplyAirTemperature,                   !- Zone Cooling Design Supply Air Temperature Input Method
  14,                                     !- Zone Cooling Design Supply Air Temperature {C}
  11.11,                                  !- Zone Cooling Design Supply Air Temperature Difference {deltaC}
  SupplyAirTemperature,                   !- Zone Heating Design Supply Air Temperature Input Method
  40,                                     !- Zone Heating Design Supply Air Temperature {C}
  11.11,                                  !- Zone Heating Design Supply Air Temperature Difference {deltaC}
  0.0085,                                 !- Zone Cooling Design Supply Air Humidity Ratio {kg-H2O/kg-air}
  0.008,                                  !- Zone Heating Design Supply Air Humidity Ratio {kg-H2O/kg-air}
  ,                                       !- Zone Heating Sizing Factor
  ,                                       !- Zone Cooling Sizing Factor
  DesignDay,                              !- Cooling Design Air Flow Method
  ,                                       !- Cooling Design Air Flow Rate {m3/s}
  ,                                       !- Cooling Minimum Air Flow per Zone Floor Area {m3/s-m2}
  ,                                       !- Cooling Minimum Air Flow {m3/s}
  ,                                       !- Cooling Minimum Air Flow Fraction
  DesignDay,                              !- Heating Design Air Flow Method
  ,                                       !- Heating Design Air Flow Rate {m3/s}
  ,                                       !- Heating Maximum Air Flow per Zone Floor Area {m3/s-m2}
  ,                                       !- Heating Maximum Air Flow {m3/s}
  ,                                       !- Heating Maximum Air Flow Fraction
  No,                                     !- Account for Dedicated Outdoor Air System
  NeutralSupplyAir,                       !- Dedicated Outdoor Air System Control Strategy
  autosize,                               !- Dedicated Outdoor Air Low Setpoint Temperature for Design {C}
  autosize,                               !- Dedicated Outdoor Air High Setpoint Temperature for Design {C}
  Sensible Load Only No Latent Load,      !- Zone Load Sizing Method
  HumidityRatioDifference,                !- Zone Latent Cooling Design Supply Air Humidity Ratio Input Method
  ,                                       !- Zone Dehumidification Design Supply Air Humidity Ratio {kgWater/kgDryAir}
  0.005,                                  !- Zone Cooling Design Supply Air Humidity Ratio Difference {kgWater/kgDryAir}
  HumidityRatioDifference,                !- Zone Latent Heating Design Supply Air Humidity Ratio Input Method
  ,                                       !- Zone Humidification Design Supply Air Humidity Ratio {kgWater/kgDryAir}
  0.005,                                  !- Zone Humidification Design Supply Air Humidity Ratio Difference {kgWater/kgDryAir}
  ,                                       !- Zone Humidistat Dehumidification Set Point Schedule Name
  ,                                       !- Zone Humidistat Humidification Set Point Schedule Name
  ,                                       !- Design Zone Air Distribution Effectiveness in Cooling Mode
  ,                                       !- Design Zone Air Distribution Effectiveness in Heating Mode
  ,                                       !- Design Zone Secondary Recirculation Fraction {dimensionless}
  ,                                       !- Design Minimum Zone Ventilation Efficiency {dimensionless}
  Coincident;                             !- Sizing Option

OS:ZoneHVAC:EquipmentList,
  {0aa2a2c7-63dc-451c-9820-29acfd60710d}, !- Handle
  Zone HVAC Equipment List 1,             !- Name
  {75dbceee-6d25-4e4e-aa4e-bbc1eb8bf62f}, !- Thermal Zone
  ,                                       !- Load Distribution Scheme
  {057e3ee2-a3c0-484d-9a90-75b21936eacc}, !- Zone Equipment 1
  1,                                      !- Zone Equipment Cooling Sequence 1
  1,                                      !- Zone Equipment Heating or No-Load Sequence 1
  {7a3d3138-f78a-4fbb-8ed2-f78b8cc3f96e}, !- Zone Equipment Sequential Cooling Fraction Schedule Name 1
  {156b6e60-7724-46f8-b7a8-e1bff8dd6592}; !- Zone Equipment Sequential Heating Fraction Schedule Name 1

OS:AdditionalProperties,
  {12e9201d-bb1a-48a0-ad9f-fe07ad561a11}, !- Handle
  {75dbceee-6d25-4e4e-aa4e-bbc1eb8bf62f}, !- Object Name
  ObjectType,                             !- Feature Name 1
  String,                                 !- Feature Data Type 1
  conditioned space;                      !- Feature Value 1

OS:Space,
  {68e21a5e-eb48-47c1-a2cf-d43bc33d9cf4}, !- Handle
  conditioned space 1,                    !- Name
  ,                                       !- Space Type Name
  ,                                       !- Default Construction Set Name
  ,                                       !- Default Schedule Set Name
  ,                                       !- Direction of Relative North {deg}
  ,                                       !- X Origin {m}
  ,                                       !- Y Origin {m}
  ,                                       !- Z Origin {m}
  ,                                       !- Building Story Name
  {75dbceee-6d25-4e4e-aa4e-bbc1eb8bf62f}, !- Thermal Zone Name
  ,                                       !- Part of Total Floor Area
  ,                                       !- Design Specification Outdoor Air Object Name
  ,                                       !- Building Unit Name
  692.06373070848;                        !- Volume {m3}

OS:Schedule:Ruleset,
  {7106377f-c1f5-4b7e-891e-9384fc06c283}, !- Handle
  heating setpoint,                       !- Name
  {043edc86-f31f-4662-9432-ddf238cbe837}, !- Schedule Type Limits Name
  {08815355-3602-4d75-9d78-6d2ab0d110b7}; !- Default Day Schedule Name

OS:Schedule:Day,
  {08815355-3602-4d75-9d78-6d2ab0d110b7}, !- Handle
  heating setpoint default day,           !- Name
  {043edc86-f31f-4662-9432-ddf238cbe837}, !- Schedule Type Limits Name
  ,                                       !- Interpolate to Timestep
  24,                                     !- Hour 1
  0,                                      !- Minute 1
  0;                                      !- Value Until Time 1

OS:Schedule:Rule,
  {7c2da436-bd09-4d89-8b7c-5af6778d22cd}, !- Handle
  heating setpoint allday rule,           !- Name
  {7106377f-c1f5-4b7e-891e-9384fc06c283}, !- Schedule Ruleset Name
  0,                                      !- Rule Order
  {bab8a385-1692-414b-a100-a127af411a74}, !- Day Schedule Name
  Yes,                                    !- Apply Sunday
  Yes,                                    !- Apply Monday
  Yes,                                    !- Apply Tuesday
  Yes,                                    !- Apply Wednesday
  Yes,                                    !- Apply Thursday
  Yes,                                    !- Apply Friday
  Yes,                                    !- Apply Saturday
  DateRange,                              !- Date Specification Type
  1,                                      !- Start Month
  1,                                      !- Start Day
  12,                                     !- End Month
  31;                                     !- End Day

OS:Schedule:Day,
  {bab8a385-1692-414b-a100-a127af411a74}, !- Handle
  heating setpoint day,                   !- Name
  {043edc86-f31f-4662-9432-ddf238cbe837}, !- Schedule Type Limits Name
  ,                                       !- Interpolate to Timestep
  24,                                     !- Hour 1
  0,                                      !- Minute 1
  20;                                     !- Value Until Time 1

OS:Schedule:Ruleset,
  {c9c316eb-26e8-46cf-9376-d36185e28902}, !- Handle
  cooling setpoint,                       !- Name
  {043edc86-f31f-4662-9432-ddf238cbe837}, !- Schedule Type Limits Name
  {c0c2fe92-ff80-4af3-a2ab-14fbc0431c84}; !- Default Day Schedule Name

OS:Schedule:Day,
  {c0c2fe92-ff80-4af3-a2ab-14fbc0431c84}, !- Handle
  cooling setpoint default day,           !- Name
  {043edc86-f31f-4662-9432-ddf238cbe837}, !- Schedule Type Limits Name
  ,                                       !- Interpolate to Timestep
  24,                                     !- Hour 1
  0,                                      !- Minute 1
  0;                                      !- Value Until Time 1

OS:Schedule:Rule,
  {d565e892-11fd-4c24-8f0f-696b5caf6ed4}, !- Handle
  cooling setpoint allday rule,           !- Name
  {c9c316eb-26e8-46cf-9376-d36185e28902}, !- Schedule Ruleset Name
  0,                                      !- Rule Order
  {07c9a03b-627c-42b9-9a4d-3a905b2a526d}, !- Day Schedule Name
  Yes,                                    !- Apply Sunday
  Yes,                                    !- Apply Monday
  Yes,                                    !- Apply Tuesday
  Yes,                                    !- Apply Wednesday
  Yes,                                    !- Apply Thursday
  Yes,                                    !- Apply Friday
  Yes,                                    !- Apply Saturday
  DateRange,                              !- Date Specification Type
  1,                                      !- Start Month
  1,                                      !- Start Day
  12,                                     !- End Month
  31;                                     !- End Day

OS:Schedule:Day,
  {07c9a03b-627c-42b9-9a4d-3a905b2a526d}, !- Handle
  cooling setpoint day,                   !- Name
  {043edc86-f31f-4662-9432-ddf238cbe837}, !- Schedule Type Limits Name
  ,                                       !- Interpolate to Timestep
  24,                                     !- Hour 1
  0,                                      !- Minute 1
  25.5555555555556;                       !- Value Until Time 1

OS:ThermostatSetpoint:DualSetpoint,
  {a2be2ea4-b005-400c-b306-30533c39865d}, !- Handle
  conditioned space temperature setpoint, !- Name
  {7106377f-c1f5-4b7e-891e-9384fc06c283}, !- Heating Setpoint Temperature Schedule Name
  {c9c316eb-26e8-46cf-9376-d36185e28902}, !- Cooling Setpoint Temperature Schedule Name
  0;                                      !- Temperature Difference Between Cutout And Setpoint {deltaC}

OS:ScheduleTypeLimits,
  {043edc86-f31f-4662-9432-ddf238cbe837}, !- Handle
  Temperature,                            !- Name
  ,                                       !- Lower Limit Value
  ,                                       !- Upper Limit Value
  Continuous,                             !- Numeric Type
  Temperature;                            !- Unit Type

OS:Surface,
  {5c07b78a-e10f-454b-b49f-7e324be78921}, !- Handle
  Roof1,                                  !- Name
  RoofCeiling,                            !- Surface Type
  {fd069cfb-e07f-4678-8f2c-6d62cd33d3d6}, !- Construction Name
  {8b55d6a6-1601-426f-ba4d-a11070e5da22}, !- Space Name
  Outdoors,                               !- Outside Boundary Condition
  ,                                       !- Outside Boundary Condition Object
  SunExposed,                             !- Sun Exposure
  WindExposed,                            !- Wind Exposure
  ,                                       !- View Factor to Ground
  ,                                       !- Number of Vertices
  9.8030170292795, 22.3990406761293, 2.4384, !- X,Y,Z Vertex 1 {m}
  9.8030170292795, 11.1328146279089, 8.0715130241102, !- X,Y,Z Vertex 2 {m}
  22.3990406761293, 11.1328146279089, 8.0715130241102, !- X,Y,Z Vertex 3 {m}
  22.3990406761293, 22.3990406761293, 2.4384; !- X,Y,Z Vertex 4 {m}

OS:AdditionalProperties,
  {3145f0bc-41a8-4dd0-9dc3-ceb28dfb9222}, !- Handle
  {5c07b78a-e10f-454b-b49f-7e324be78921}, !- Object Name
  Length,                                 !- Feature Name 1
  Double,                                 !- Feature Data Type 1
  41.325536899113608,                     !- Feature Value 1
  Width,                                  !- Feature Name 2
  Double,                                 !- Feature Data Type 2
  41.325536899113601,                     !- Feature Value 2
  Azimuth,                                !- Feature Name 3
  Integer,                                !- Feature Data Type 3
  0,                                      !- Feature Value 3
  Tilt,                                   !- Feature Name 4
  Double,                                 !- Feature Data Type 4
  0.5,                                    !- Feature Value 4
  SurfaceType,                            !- Feature Name 5
  String,                                 !- Feature Data Type 5
  Roof;                                   !- Feature Value 5

OS:ThermalZone,
  {8254e91c-3458-4115-8332-1d0e152465d6}, !- Handle
  attic - vented,                         !- Name
  1,                                      !- Multiplier
  ,                                       !- Ceiling Height {m}
  356.389957095237,                       !- Volume {m3}
  ,                                       !- Floor Area {m2}
  ,                                       !- Zone Inside Convection Algorithm
  ,                                       !- Zone Outside Convection Algorithm
  ,                                       !- Zone Conditioning Equipment List Name
  {03ceb6f7-8529-4994-8c08-28067db629df}, !- Zone Air Inlet Port List
  {ffafc46f-7855-4062-9055-074dad251aab}, !- Zone Air Exhaust Port List
  {f0e6242b-4ac0-4633-82d9-eac884488926}, !- Zone Air Node Name
  {8a074dd3-1216-4d2c-ab58-212a21a07aff}, !- Zone Return Air Port List
  ,                                       !- Primary Daylighting Control Name
  ,                                       !- Fraction of Zone Controlled by Primary Daylighting Control
  ,                                       !- Secondary Daylighting Control Name
  ,                                       !- Fraction of Zone Controlled by Secondary Daylighting Control
  ,                                       !- Illuminance Map Name
  ,                                       !- Group Rendering Name
  ,                                       !- Thermostat Name
  No;                                     !- Use Ideal Air Loads

OS:Node,
  {3710758d-44f9-438f-8050-bf4a1fea40dc}, !- Handle
  Node 2,                                 !- Name
  {f0e6242b-4ac0-4633-82d9-eac884488926}, !- Inlet Port
  ;                                       !- Outlet Port

OS:Connection,
  {f0e6242b-4ac0-4633-82d9-eac884488926}, !- Handle
  {8254e91c-3458-4115-8332-1d0e152465d6}, !- Source Object
  11,                                     !- Outlet Port
  {3710758d-44f9-438f-8050-bf4a1fea40dc}, !- Target Object
  2;                                      !- Inlet Port

OS:PortList,
  {03ceb6f7-8529-4994-8c08-28067db629df}, !- Handle
  {8254e91c-3458-4115-8332-1d0e152465d6}; !- HVAC Component

OS:PortList,
  {ffafc46f-7855-4062-9055-074dad251aab}, !- Handle
  {8254e91c-3458-4115-8332-1d0e152465d6}; !- HVAC Component

OS:PortList,
  {8a074dd3-1216-4d2c-ab58-212a21a07aff}, !- Handle
  {8254e91c-3458-4115-8332-1d0e152465d6}; !- HVAC Component

OS:Sizing:Zone,
  {ad2df34d-30e9-41c3-b1c0-2e40f7afae77}, !- Handle
  {8254e91c-3458-4115-8332-1d0e152465d6}, !- Zone or ZoneList Name
  SupplyAirTemperature,                   !- Zone Cooling Design Supply Air Temperature Input Method
  14,                                     !- Zone Cooling Design Supply Air Temperature {C}
  11.11,                                  !- Zone Cooling Design Supply Air Temperature Difference {deltaC}
  SupplyAirTemperature,                   !- Zone Heating Design Supply Air Temperature Input Method
  40,                                     !- Zone Heating Design Supply Air Temperature {C}
  11.11,                                  !- Zone Heating Design Supply Air Temperature Difference {deltaC}
  0.0085,                                 !- Zone Cooling Design Supply Air Humidity Ratio {kg-H2O/kg-air}
  0.008,                                  !- Zone Heating Design Supply Air Humidity Ratio {kg-H2O/kg-air}
  ,                                       !- Zone Heating Sizing Factor
  ,                                       !- Zone Cooling Sizing Factor
  DesignDay,                              !- Cooling Design Air Flow Method
  ,                                       !- Cooling Design Air Flow Rate {m3/s}
  ,                                       !- Cooling Minimum Air Flow per Zone Floor Area {m3/s-m2}
  ,                                       !- Cooling Minimum Air Flow {m3/s}
  ,                                       !- Cooling Minimum Air Flow Fraction
  DesignDay,                              !- Heating Design Air Flow Method
  ,                                       !- Heating Design Air Flow Rate {m3/s}
  ,                                       !- Heating Maximum Air Flow per Zone Floor Area {m3/s-m2}
  ,                                       !- Heating Maximum Air Flow {m3/s}
  ,                                       !- Heating Maximum Air Flow Fraction
  No,                                     !- Account for Dedicated Outdoor Air System
  NeutralSupplyAir,                       !- Dedicated Outdoor Air System Control Strategy
  autosize,                               !- Dedicated Outdoor Air Low Setpoint Temperature for Design {C}
  autosize,                               !- Dedicated Outdoor Air High Setpoint Temperature for Design {C}
  Sensible Load Only No Latent Load,      !- Zone Load Sizing Method
  HumidityRatioDifference,                !- Zone Latent Cooling Design Supply Air Humidity Ratio Input Method
  ,                                       !- Zone Dehumidification Design Supply Air Humidity Ratio {kgWater/kgDryAir}
  0.005,                                  !- Zone Cooling Design Supply Air Humidity Ratio Difference {kgWater/kgDryAir}
  HumidityRatioDifference,                !- Zone Latent Heating Design Supply Air Humidity Ratio Input Method
  ,                                       !- Zone Humidification Design Supply Air Humidity Ratio {kgWater/kgDryAir}
  0.005,                                  !- Zone Humidification Design Supply Air Humidity Ratio Difference {kgWater/kgDryAir}
  ,                                       !- Zone Humidistat Dehumidification Set Point Schedule Name
  ,                                       !- Zone Humidistat Humidification Set Point Schedule Name
  ,                                       !- Design Zone Air Distribution Effectiveness in Cooling Mode
  ,                                       !- Design Zone Air Distribution Effectiveness in Heating Mode
  ,                                       !- Design Zone Secondary Recirculation Fraction {dimensionless}
  ,                                       !- Design Minimum Zone Ventilation Efficiency {dimensionless}
  Coincident;                             !- Sizing Option

OS:ZoneHVAC:EquipmentList,
  {1c45f2ad-6ea7-4f99-b2f1-35f10167eeef}, !- Handle
  Zone HVAC Equipment List 2,             !- Name
  {8254e91c-3458-4115-8332-1d0e152465d6}; !- Thermal Zone

OS:AdditionalProperties,
  {c80f2ead-8b0c-4c2c-a77f-9cd966e42747}, !- Handle
  {8254e91c-3458-4115-8332-1d0e152465d6}, !- Object Name
  ObjectType,                             !- Feature Name 1
  String,                                 !- Feature Data Type 1
  attic - vented;                         !- Feature Value 1

OS:Space,
  {8b55d6a6-1601-426f-ba4d-a11070e5da22}, !- Handle
  attic - vented 1,                       !- Name
  ,                                       !- Space Type Name
  ,                                       !- Default Construction Set Name
  ,                                       !- Default Schedule Set Name
  ,                                       !- Direction of Relative North {deg}
  ,                                       !- X Origin {m}
  ,                                       !- Y Origin {m}
  ,                                       !- Z Origin {m}
  ,                                       !- Building Story Name
  {8254e91c-3458-4115-8332-1d0e152465d6}, !- Thermal Zone Name
  ,                                       !- Part of Total Floor Area
  ,                                       !- Design Specification Outdoor Air Object Name
  ,                                       !- Building Unit Name
  356.389957095237;                       !- Volume {m3}

OS:Material,
  {06347a5f-a09d-4cf2-8aa9-bcec1fc1831b}, !- Handle
  asphalt or fiberglass shingles,         !- Name
  Rough,                                  !- Roughness
  0.00635,                                !- Thickness {m}
  0.162714,                               !- Conductivity {W/m-K}
  1121.4,                                 !- Density {kg/m3}
  1465.45,                                !- Specific Heat {J/kg-K}
  0.9,                                    !- Thermal Absorptance
  0.85,                                   !- Solar Absorptance