
OS:Version,
  {562869ed-8002-45e4-a89b-b95927d9c300}, !- Handle
  3.10.0;                                 !- Version Identifier

OS:SimulationControl,
  {89a94401-4a55-4558-b34e-5270fce10edd}, !- Handle
  ,                                       !- Do Zone Sizing Calculation
  ,                                       !- Do System Sizing Calculation
  ,                                       !- Do Plant Sizing Calculation
  No;                                     !- Run Simulation for Sizing Periods

OS:Timestep,
  {2aadb430-9b33-428a-b5ca-eecfbe0e1682}, !- Handle
  1;                                      !- Number of Timesteps per Hour

OS:ShadowCalculation,
  {f2fd231b-80df-4d9e-9aed-53111192ab2f}, !- Handle
  PolygonClipping,                        !- Shading Calculation Method
  ,                                       !- Shading Calculation Update Frequency Method
  20,                                     !- Shading Calculation Update Frequency
  200,                                    !- Maximum Figures in Shadow Overlap Calculations
  ,                                       !- Polygon Clipping Algorithm
  512,                                    !- Pixel Counting Resolution
  ,                                       !- Sky Diffuse Modeling Algorithm
  No,                                     !- Output External Shading Calculation Results
  No,                                     !- Disable Self-Shading Within Shading Zone Groups
  No;                                     !- Disable Self-Shading From Shading Zone Groups to Other Zones

OS:SurfaceConvectionAlgorithm:Outside,
  {5c042ca2-f07d-48cb-bdd8-c5928f16f5e7}, !- Handle
  DOE-2;                                  !- Algorithm

OS:SurfaceConvectionAlgorithm:Inside,
  {6f1f1fc8-3734-43c2-b472-dff126dd904c}, !- Handle
  TARP;                                   !- Algorithm

OS:ZoneCapacitanceMultiplier:ResearchSpecial,
  {ec3c25ca-3491-4a74-971e-e38174c9aafd}, !- Handle
  7,                                      !- Temperature Capacity Multiplier
  15,                                     !- Humidity Capacity Multiplier
  ;                                       !- Carbon Dioxide Capacity Multiplier

OS:ConvergenceLimits,
  {7f1b4359-bdb9-429e-8863-446eb313b4c4}, !- Handle
  0;                                      !- Minimum System Timestep {minutes}

OS:RunPeriod,
  {57065fc6-5e38-487b-81cc-52ae40baf6aa}, !- Handle
  Run Period 1,                           !- Name
  1,                                      !- Begin Month
  1,                                      !- Begin Day of Month
  12,                                     !- End Month
  31,                                     !- End Day of Month
  ,                                       !- Use Weather File Holidays and Special Days
  ,                                       !- Use Weather File Daylight Saving Period
  ,                                       !- Apply Weekend Holiday Rule
  ,                                       !- Use Weather File Rain Indicators
  ,                                       !- Use Weather File Snow Indicators
  ;                                       !- Number of Times Runperiod to be Repeated

OS:PerformancePrecisionTradeoffs,
  {6355d9a7-3689-438b-95ab-7939d8a7f683}, !- Handle
  ,                                       !- Use Coil Direct Solutions
  CarrollMRT;                             !- Zone Radiant Exchange Algorithm

OS:WeatherFile,
  {2ca70511-3f42-4f45-8501-dc91e2ddb1a3}, !- Handle
  Buffalo Niagara Intl Ap,                !- City
  NY,                                     !- State Province Region
  USA,                                    !- Country
  TMY3,                                   !- Data Source
  725280,                                 !- WMO Number
  42.93,                                  !- Latitude {deg}
  -78.73,                                 !- Longitude {deg}
  -5,                                     !- Time Zone {hr}
  215,                                    !- Elevation {m}
  /Users/nmoore/github/urbanopt-example-geojson-project/example_project/weather/USA_NY_Buffalo-Greater.Buffalo.Intl.AP.725280_TMY3.epw, !- Url
  6B50E0FF,                               !- Checksum
  ,                                       !- Start Date Actual Year
  Sunday;                                 !- Start Day of Week

OS:YearDescription,
  {4da4f94f-2e66-4019-8d88-0ef9ac087987}, !- Handle
  2007,                                   !- Calendar Year
  ,                                       !- Day of Week for Start Day
  ;                                       !- Is Leap Year

OS:Site,
  {ebe95986-5adc-4238-bf52-e6af372f8a45}, !- Handle
  Buffalo Niagara Intl Ap_NY,             !- Name
  42.93,                                  !- Latitude {deg}
  -78.73,                                 !- Longitude {deg}
  -5,                                     !- Time Zone {hr}
  215,                                    !- Elevation {m}
  Suburbs,                                !- Terrain
  Yes;                                    !- Keep Site Location Information

OS:RunPeriodControl:DaylightSavingTime,
  {4a047f79-d02f-47b7-8a0a-5152ed1d20ee}, !- Handle
  Mar 12,                                 !- Start Date
  Nov 5;                                  !- End Date

OS:Site:GroundTemperature:Shallow,
  {66bff8b5-1f7c-48f3-9d0b-aed45dafc965}, !- Handle
  4.30207395723828,                       !- January Surface Ground Temperature {C}
  2.29327249652502,                       !- February Surface Ground Temperature {C}
  2.13240047156047,                       !- March Surface Ground Temperature {C}
  3.08567940719286,                       !- April Surface Ground Temperature {C}
  6.91256312497526,                       !- May Surface Ground Temperature {C}
  10.7216195949507,                       !- June Surface Ground Temperature {C}
  14.0238679822574,                       !- July Surface Ground Temperature {C}
  16.1157611184724,                       !- August Surface Ground Temperature {C}
  16.2934789303462,                       !- September Surface Ground Temperature {C}
  14.5920754632847,                       !- October Surface Ground Temperature {C}
  11.374036348653,                        !- November Surface Ground Temperature {C}
  7.68182621661674;                       !- December Surface Ground Temperature {C}

OS:ThermalZone,
  {5ca4890f-264e-4699-b244-45fb296f30a0}, !- Handle
  conditioned space,                      !- Name
  1,                                      !- Multiplier
  ,                                       !- Ceiling Height {m}
  692.06373070848,                        !- Volume {m3}
  ,                                       !- Floor Area {m2}
  ,                                       !- Zone Inside Convection Algorithm
  ,                                       !- Zone Outside Convection Algorithm
  ,                                       !- Zone Conditioning Equipment List Name
  {9eca2a97-a06d-478e-8caa-f214f7207812}, !- Zone Air Inlet Port List
  {9b50dd5b-5a5a-45ea-bd18-5c26513fd6d8}, !- Zone Air Exhaust Port List
  {31aade9e-ecce-4c5a-8867-b6fbbf8517bf}, !- Zone Air Node Name
  {3b783856-a058-4192-b39d-795e3d6e3e99}, !- Zone Return Air Port List
  ,                                       !- Primary Daylighting Control Name
  ,                                       !- Fraction of Zone Controlled by Primary Daylighting Control
  ,                                       !- Secondary Daylighting Control Name
  ,                                       !- Fraction of Zone Controlled by Secondary Daylighting Control
  ,                                       !- Illuminance Map Name
  ,                                       !- Group Rendering Name
  {255301fe-8ba3-4555-8170-98a058d8d8a7}, !- Thermostat Name
  No;                                     !- Use Ideal Air Loads

OS:Node,
  {6ffb7d67-8be8-4805-8f89-2a16fffd4fd7}, !- Handle
  Node 1,                                 !- Name
  {31aade9e-ecce-4c5a-8867-b6fbbf8517bf}, !- Inlet Port
  ;                                       !- Outlet Port

OS:Connection,
  {31aade9e-ecce-4c5a-8867-b6fbbf8517bf}, !- Handle
  {5ca4890f-264e-4699-b244-45fb296f30a0}, !- Source Object
  11,                                     !- Outlet Port
  {6ffb7d67-8be8-4805-8f89-2a16fffd4fd7}, !- Target Object
  2;                                      !- Inlet Port

OS:PortList,
  {9eca2a97-a06d-478e-8caa-f214f7207812}, !- Handle
  {5ca4890f-264e-4699-b244-45fb296f30a0}, !- HVAC Component
  {4da1ba99-1ba1-496c-a310-8e364569ee7d}; !- Port 1

OS:PortList,
  {9b50dd5b-5a5a-45ea-bd18-5c26513fd6d8}, !- Handle
  {5ca4890f-264e-4699-b244-45fb296f30a0}; !- HVAC Component

OS:PortList,
  {3b783856-a058-4192-b39d-795e3d6e3e99}, !- Handle
  {5ca4890f-264e-4699-b244-45fb296f30a0}, !- HVAC Component
  {de3cc0ab-3ebe-4cb5-9b92-42bc08c4e67c}; !- Port 1

OS:Sizing:Zone,
  {7aa065ff-66f0-43a9-b63a-f2bff54b925e}, !- Handle
  {5ca4890f-264e-4699-b244-45fb296f30a0}, !- Zone or ZoneList Name
  SupplyAirTemperature,                   !- Zone Cooling Design Supply Air Temperature Input Method
  14,                                     !- Zone Cooling Design Supply Air Temperature {C}
  11.11,                                  !- Zone Cooling Design Supply Air Temperature Difference {deltaC}
  SupplyAirTemperature,                   !- Zone Heating Design Supply Air Temperature Input Method
  40,                                     !- Zone Heating Design Supply Air Temperature {C}
  11.11,                                  !- Zone Heating Design Supply Air Temperature Difference {deltaC}
  0.0085,                                 !- Zone Cooling Design Supply Air Humidity Ratio {kg-H2O/kg-air}
  0.008,                                  !- Zone Heating Design Supply Air Humidity Ratio {kg-H2O/kg-air}
  ,                                       !- Zone Heating Sizing Factor
  ,                                       !- Zone Cooling Sizing Factor
  DesignDay,                              !- Cooling Design Air Flow Method
  ,                                       !- Cooling Design Air Flow Rate {m3/s}
  ,                                       !- Cooling Minimum Air Flow per Zone Floor Area {m3/s-m2}
  ,                                       !- Cooling Minimum Air Flow {m3/s}
  ,                                       !- Cooling Minimum Air Flow Fraction
  DesignDay,                              !- Heating Design Air Flow Method
  ,                                       !- Heating Design Air Flow Rate {m3/s}
  ,                                       !- Heating Maximum Air Flow per Zone Floor Area {m3/s-m2}
  ,                                       !- Heating Maximum Air Flow {m3/s}
  ,                                       !- Heating Maximum Air Flow Fraction
  No,                                     !- Account for Dedicated Outdoor Air System
  NeutralSupplyAir,                       !- Dedicated Outdoor Air System Control Strategy
  autosize,                               !- Dedicated Outdoor Air Low Setpoint Temperature for Design {C}
  autosize,                               !- Dedicated Outdoor Air High Setpoint Temperature for Design {C}
  Sensible Load Only No Latent Load,      !- Zone Load Sizing Method
  HumidityRatioDifference,                !- Zone Latent Cooling Design Supply Air Humidity Ratio Input Method
  ,                                       !- Zone Dehumidification Design Supply Air Humidity Ratio {kgWater/kgDryAir}
  0.005,                                  !- Zone Cooling Design Supply Air Humidity Ratio Difference {kgWater/kgDryAir}
  HumidityRatioDifference,                !- Zone Latent Heating Design Supply Air Humidity Ratio Input Method
  ,                                       !- Zone Humidification Design Supply Air Humidity Ratio {kgWater/kgDryAir}
  0.005,                                  !- Zone Humidification Design Supply Air Humidity Ratio Difference {kgWater/kgDryAir}
  ,                                       !- Zone Humidistat Dehumidification Set Point Schedule Name
  ,                                       !- Zone Humidistat Humidification Set Point Schedule Name
  ,                                       !- Design Zone Air Distribution Effectiveness in Cooling Mode
  ,                                       !- Design Zone Air Distribution Effectiveness in Heating Mode
  ,                                       !- Design Zone Secondary Recirculation Fraction {dimensionless}
  ,                                       !- Design Minimum Zone Ventilation Efficiency {dimensionless}
  Coincident;                             !- Sizing Option

OS:ZoneHVAC:EquipmentList,
  {56cf920f-8878-469b-9f94-73b26c7f0820}, !- Handle
  Zone HVAC Equipment List 1,             !- Name
  {5ca4890f-264e-4699-b244-45fb296f30a0}, !- Thermal Zone
  ,                                       !- Load Distribution Scheme
  {32ca3d6e-0d03-486e-8f2e-b890ce446db6}, !- Zone Equipment 1
  1,                                      !- Zone Equipment Cooling Sequence 1
  1,                                      !- Zone Equipment Heating or No-Load Sequence 1
  {e9bb20ee-c2a4-4414-a7a6-575c8d8d7c14}, !- Zone Equipment Sequential Cooling Fraction Schedule Name 1
  {7f0ddca4-2a7e-487d-8595-8967a311d827}; !- Zone Equipment Sequential Heating Fraction Schedule Name 1

OS:AdditionalProperties,
  {6ee3c780-6b44-4638-b1cc-c7e8251d5f70}, !- Handle
  {5ca4890f-264e-4699-b244-45fb296f30a0}, !- Object Name
  ObjectType,                             !- Feature Name 1
  String,                                 !- Feature Data Type 1
  conditioned space;                      !- Feature Value 1

OS:Space,
  {8e9749ff-8151-492b-bb6b-7d506358c7df}, !- Handle
  conditioned space 1,                    !- Name
  ,                                       !- Space Type Name
  ,                                       !- Default Construction Set Name
  ,                                       !- Default Schedule Set Name
  ,                                       !- Direction of Relative North {deg}
  ,                                       !- X Origin {m}
  ,                                       !- Y Origin {m}
  ,                                       !- Z Origin {m}
  ,                                       !- Building Story Name
  {5ca4890f-264e-4699-b244-45fb296f30a0}, !- Thermal Zone Name
  ,                                       !- Part of Total Floor Area
  ,                                       !- Design Specification Outdoor Air Object Name
  ,                                       !- Building Unit Name
  692.06373070848;                        !- Volume {m3}

OS:Schedule:Ruleset,
  {6fa93410-22fa-41b6-b7c1-a283234c470c}, !- Handle
  heating setpoint,                       !- Name
  {19e68d8d-a048-400e-a4eb-c8e863a05dec}, !- Schedule Type Limits Name
  {35b1f240-06dd-4805-a420-42ec33cb64a2}; !- Default Day Schedule Name

OS:Schedule:Day,
  {35b1f240-06dd-4805-a420-42ec33cb64a2}, !- Handle
  heating setpoint default day,           !- Name
  {19e68d8d-a048-400e-a4eb-c8e863a05dec}, !- Schedule Type Limits Name
  ,                                       !- Interpolate to Timestep
  24,                                     !- Hour 1
  0,                                      !- Minute 1
  0;                                      !- Value Until Time 1

OS:Schedule:Rule,
  {d8d7b843-46d7-4722-8f7d-9d262e6ffc69}, !- Handle
  heating setpoint allday rule,           !- Name
  {6fa93410-22fa-41b6-b7c1-a283234c470c}, !- Schedule Ruleset Name
  0,                                      !- Rule Order
  {e269b30e-f7ef-4d85-82e8-f1550200f0f8}, !- Day Schedule Name
  Yes,                                    !- Apply Sunday
  Yes,                                    !- Apply Monday
  Yes,                                    !- Apply Tuesday
  Yes,                                    !- Apply Wednesday
  Yes,                                    !- Apply Thursday
  Yes,                                    !- Apply Friday
  Yes,                                    !- Apply Saturday
  DateRange,                              !- Date Specification Type
  1,                                      !- Start Month
  1,                                      !- Start Day
  12,                                     !- End Month
  31;                                     !- End Day

OS:Schedule:Day,
  {e269b30e-f7ef-4d85-82e8-f1550200f0f8}, !- Handle
  heating setpoint day,                   !- Name
  {19e68d8d-a048-400e-a4eb-c8e863a05dec}, !- Schedule Type Limits Name
  ,                                       !- Interpolate to Timestep
  24,                                     !- Hour 1
  0,                                      !- Minute 1
  20;                                     !- Value Until Time 1

OS:Schedule:Ruleset,
  {374fb559-793b-449e-9635-8a90afe19c6d}, !- Handle
  cooling setpoint,                       !- Name
  {19e68d8d-a048-400e-a4eb-c8e863a05dec}, !- Schedule Type Limits Name
  {efef72ea-e2e5-4c8c-bf7d-5acc786c8f67}; !- Default Day Schedule Name

OS:Schedule:Day,
  {efef72ea-e2e5-4c8c-bf7d-5acc786c8f67}, !- Handle
  cooling setpoint default day,           !- Name
  {19e68d8d-a048-400e-a4eb-c8e863a05dec}, !- Schedule Type Limits Name
  ,                                       !- Interpolate to Timestep
  24,                                     !- Hour 1
  0,                                      !- Minute 1
  0;                                      !- Value Until Time 1

OS:Schedule:Rule,
  {adfca13a-fcab-413b-bcbe-c96ba5646fbd}, !- Handle
  cooling setpoint allday rule,           !- Name
  {374fb559-793b-449e-9635-8a90afe19c6d}, !- Schedule Ruleset Name
  0,                                      !- Rule Order
  {c54b628c-e65a-4639-969f-cbdbaa652414}, !- Day Schedule Name
  Yes,                                    !- Apply Sunday
  Yes,                                    !- Apply Monday
  Yes,                                    !- Apply Tuesday
  Yes,                                    !- Apply Wednesday
  Yes,                                    !- Apply Thursday
  Yes,                                    !- Apply Friday
  Yes,                                    !- Apply Saturday
  DateRange,                              !- Date Specification Type
  1,                                      !- Start Month
  1,                                      !- Start Day
  12,                                     !- End Month
  31;                                     !- End Day

OS:Schedule:Day,
  {c54b628c-e65a-4639-969f-cbdbaa652414}, !- Handle
  cooling setpoint day,                   !- Name
  {19e68d8d-a048-400e-a4eb-c8e863a05dec}, !- Schedule Type Limits Name
  ,                                       !- Interpolate to Timestep
  24,                                     !- Hour 1
  0,                                      !- Minute 1
  25.5555555555556;                       !- Value Until Time 1

OS:ThermostatSetpoint:DualSetpoint,
  {255301fe-8ba3-4555-8170-98a058d8d8a7}, !- Handle
  conditioned space temperature setpoint, !- Name
  {6fa93410-22fa-41b6-b7c1-a283234c470c}, !- Heating Setpoint Temperature Schedule Name
  {374fb559-793b-449e-9635-8a90afe19c6d}, !- Cooling Setpoint Temperature Schedule Name
  0;                                      !- Temperature Difference Between Cutout And Setpoint {deltaC}

OS:ScheduleTypeLimits,
  {19e68d8d-a048-400e-a4eb-c8e863a05dec}, !- Handle
  Temperature,                            !- Name
  ,                                       !- Lower Limit Value
  ,                                       !- Upper Limit Value
  Continuous,                             !- Numeric Type
  Temperature;                            !- Unit Type

OS:Surface,
  {75b4a0b1-4054-4f03-aa87-ab5555dd64cb}, !- Handle
  Roof1,                                  !- Name
  RoofCeiling,                            !- Surface Type
  {2c0df5dc-d031-4e44-8b5d-f866be109edf}, !- Construction Name
  {8c842ed7-22bf-443f-9428-e1d5802ec927}, !- Space Name
  Outdoors,                               !- Outside Boundary Condition
  ,                                       !- Outside Boundary Condition Object
  SunExposed,                             !- Sun Exposure
  WindExposed,                            !- Wind Exposure
  ,                                       !- View Factor to Ground
  ,                                       !- Number of Vertices
  -26.9347048849634, 58.0557891618865, 2.4384, !- X,Y,Z Vertex 1 {m}
  -26.9347048849634, 46.7895631136661, 8.0715130241102, !- X,Y,Z Vertex 2 {m}
  -14.3386812381136, 46.7895631136661, 8.0715130241102, !- X,Y,Z Vertex 3 {m}
  -14.3386812381136, 58.0557891618865, 2.4384; !- X,Y,Z Vertex 4 {m}

OS:AdditionalProperties,
  {be5dd43a-9538-41a0-9188-9ed6586ccd9b}, !- Handle
  {75b4a0b1-4054-4f03-aa87-ab5555dd64cb}, !- Object Name
  Length,                                 !- Feature Name 1
  Double,                                 !- Feature Data Type 1
  41.325536899113608,                     !- Feature Value 1
  Width,                                  !- Feature Name 2
  Double,                                 !- Feature Data Type 2
  41.325536899113601,                     !- Feature Value 2
  Azimuth,                                !- Feature Name 3
  Integer,                                !- Feature Data Type 3
  0,                                      !- Feature Value 3
  Tilt,                                   !- Feature Name 4
  Double,                                 !- Feature Data Type 4
  0.5,                                    !- Feature Value 4
  SurfaceType,                            !- Feature Name 5
  String,                                 !- Feature Data Type 5
  Roof;                                   !- Feature Value 5

OS:ThermalZone,
  {7ca8f717-6562-4f68-8a34-c34a774f387c}, !- Handle
  attic - vented,                         !- Name
  1,                                      !- Multiplier
  ,                                       !- Ceiling Height {m}
  356.390921899745,                       !- Volume {m3}
  ,                                       !- Floor Area {m2}
  ,                                       !- Zone Inside Convection Algorithm
  ,                                       !- Zone Outside Convection Algorithm
  ,                                       !- Zone Conditioning Equipment List Name
  {554aecea-095b-48f0-ad8f-1f7410eb1438}, !- Zone Air Inlet Port List
  {2e10bab6-5b86-4cf2-b6bc-dc1a4d9c86e6}, !- Zone Air Exhaust Port List
  {a00787d6-bd1b-45b7-b58c-6d7d861c7dc0}, !- Zone Air Node Name
  {b404d665-7443-4052-b150-2ed541b2f9b5}, !- Zone Return Air Port List
  ,                                       !- Primary Daylighting Control Name
  ,                                       !- Fraction of Zone Controlled by Primary Daylighting Control
  ,                                       !- Secondary Daylighting Control Name
  ,                                       !- Fraction of Zone Controlled by Secondary Daylighting Control
  ,                                       !- Illuminance Map Name
  ,                                       !- Group Rendering Name
  ,                                       !- Thermostat Name
  No;                                     !- Use Ideal Air Loads

OS:Node,
  {b9a9019e-ff29-4670-9729-392f2c735906}, !- Handle
  Node 2,                                 !- Name
  {a00787d6-bd1b-45b7-b58c-6d7d861c7dc0}, !- Inlet Port
  ;                                       !- Outlet Port

OS:Connection,
  {a00787d6-bd1b-45b7-b58c-6d7d861c7dc0}, !- Handle
  {7ca8f717-6562-4f68-8a34-c34a774f387c}, !- Source Object
  11,                                     !- Outlet Port
  {b9a9019e-ff29-4670-9729-392f2c735906}, !- Target Object
  2;                                      !- Inlet Port

OS:PortList,
  {554aecea-095b-48f0-ad8f-1f7410eb1438}, !- Handle
  {7ca8f717-6562-4f68-8a34-c34a774f387c}; !- HVAC Component

OS:PortList,
  {2e10bab6-5b86-4cf2-b6bc-dc1a4d9c86e6}, !- Handle
  {7ca8f717-6562-4f68-8a34-c34a774f387c}; !- HVAC Component

OS:PortList,
  {b404d665-7443-4052-b150-2ed541b2f9b5}, !- Handle
  {7ca8f717-6562-4f68-8a34-c34a774f387c}; !- HVAC Component

OS:Sizing:Zone,
  {53b4ebb3-243a-4192-84a7-5af6657a320f}, !- Handle
  {7ca8f717-6562-4f68-8a34-c34a774f387c}, !- Zone or ZoneList Name
  SupplyAirTemperature,                   !- Zone Cooling Design Supply Air Temperature Input Method
  14,                                     !- Zone Cooling Design Supply Air Temperature {C}
  11.11,                                  !- Zone Cooling Design Supply Air Temperature Difference {deltaC}
  SupplyAirTemperature,                   !- Zone Heating Design Supply Air Temperature Input Method
  40,                                     !- Zone Heating Design Supply Air Temperature {C}
  11.11,                                  !- Zone Heating Design Supply Air Temperature Difference {deltaC}
  0.0085,                                 !- Zone Cooling Design Supply Air Humidity Ratio {kg-H2O/kg-air}
  0.008,                                  !- Zone Heating Design Supply Air Humidity Ratio {kg-H2O/kg-air}
  ,                                       !- Zone Heating Sizing Factor
  ,                                       !- Zone Cooling Sizing Factor
  DesignDay,                              !- Cooling Design Air Flow Method
  ,                                       !- Cooling Design Air Flow Rate {m3/s}
  ,                                       !- Cooling Minimum Air Flow per Zone Floor Area {m3/s-m2}
  ,                                       !- Cooling Minimum Air Flow {m3/s}
  ,                                       !- Cooling Minimum Air Flow Fraction
  DesignDay,                              !- Heating Design Air Flow Method
  ,                                       !- Heating Design Air Flow Rate {m3/s}
  ,                                       !- Heating Maximum Air Flow per Zone Floor Area {m3/s-m2}
  ,                                       !- Heating Maximum Air Flow {m3/s}
  ,                                       !- Heating Maximum Air Flow Fraction
  No,                                     !- Account for Dedicated Outdoor Air System
  NeutralSupplyAir,                       !- Dedicated Outdoor Air System Control Strategy
  autosize,                               !- Dedicated Outdoor Air Low Setpoint Temperature for Design {C}
  autosize,                               !- Dedicated Outdoor Air High Setpoint Temperature for Design {C}
  Sensible Load Only No Latent Load,      !- Zone Load Sizing Method
  HumidityRatioDifference,                !- Zone Latent Cooling Design Supply Air Humidity Ratio Input Method
  ,                                       !- Zone Dehumidification Design Supply Air Humidity Ratio {kgWater/kgDryAir}
  0.005,                                  !- Zone Cooling Design Supply Air Humidity Ratio Difference {kgWater/kgDryAir}
  HumidityRatioDifference,                !- Zone Latent Heating Design Supply Air Humidity Ratio Input Method
  ,                                       !- Zone Humidification Design Supply Air Humidity Ratio {kgWater/kgDryAir}
  0.005,                                  !- Zone Humidification Design Supply Air Humidity Ratio Difference {kgWater/kgDryAir}
  ,                                       !- Zone Humidistat Dehumidification Set Point Schedule Name
  ,                                       !- Zone Humidistat Humidification Set Point Schedule Name
  ,                                       !- Design Zone Air Distribution Effectiveness in Cooling Mode
  ,                                       !- Design Zone Air Distribution Effectiveness in Heating Mode
  ,                                       !- Design Zone Secondary Recirculation Fraction {dimensionless}
  ,                                       !- Design Minimum Zone Ventilation Efficiency {dimensionless}
  Coincident;                             !- Sizing Option

OS:ZoneHVAC:EquipmentList,
  {6c0fa9d8-422d-456d-957e-a4f91a3064b7}, !- Handle
  Zone HVAC Equipment List 2,             !- Name
  {7ca8f717-6562-4f68-8a34-c34a774f387c}; !- Thermal Zone

OS:AdditionalProperties,
  {1a00fa8e-5d02-45b4-83e7-86bfeda42602}, !- Handle
  {7ca8f717-6562-4f68-8a34-c34a774f387c}, !- Object Name
  ObjectType,                             !- Feature Name 1
  String,                                 !- Feature Data Type 1
  attic - vented;                         !- Feature Value 1

OS:Space,
  {8c842ed7-22bf-443f-9428-e1d5802ec927}, !- Handle
  attic - vented 1,                       !- Name
  ,                                       !- Space Type Name
  ,                                       !- Default Construction Set Name
  ,                                       !- Default Schedule Set Name
  ,                                       !- Direction of Relative North {deg}
  ,                                       !- X Origin {m}
  ,                                       !- Y Origin {m}
  ,                                       !- Z Origin {m}
  ,                                       !- Building Story Name
  {7ca8f717-6562-4f68-8a34-c34a774f387c}, !- Thermal Zone Name
  ,                                       !- Part of Total Floor Area
  ,                                       !- Design Specification Outdoor Air Object Name
  ,                                       !- Building Unit Name
  356.390921899745;                       !- Volume {m3}

OS:Material,
  {fdd5f5ac-560b-4346-9518-6fb600e80845}, !- Handle
  asphalt or fiberglass shingles,         !- Name
  Rough,                                  !- Roughness
  0.00635,                                !- Thickness {m}
  0.162714,                               !- Conductivity {W/m-K}
  1121.4,                                 !- Density {kg/m3}
  1465.45,                                !- Specific Heat {J/kg-K}
  0.9,                                    !- Thermal Absorptance
  0.85,                                   !- Solar Absorptance