
OS:Version,
  {9e142a7b-6051-4c49-8915-bf6093268f3c}, !- Handle
  3.9.0;                                  !- Version Identifier

OS:SimulationControl,
  {2403b91a-c61f-4401-86b5-189cbe4da013}, !- Handle
  ,                                       !- Do Zone Sizing Calculation
  ,                                       !- Do System Sizing Calculation
  ,                                       !- Do Plant Sizing Calculation
  No;                                     !- Run Simulation for Sizing Periods

OS:Timestep,
  {66452469-0f2e-4fbb-9b72-a8076737d78f}, !- Handle
  1;                                      !- Number of Timesteps per Hour

OS:ShadowCalculation,
  {a1b8565e-26cc-4cbe-84e2-ac89da6fd488}, !- Handle
  PolygonClipping,                        !- Shading Calculation Method
  ,                                       !- Shading Calculation Update Frequency Method
  20,                                     !- Shading Calculation Update Frequency
  200,                                    !- Maximum Figures in Shadow Overlap Calculations
  ,                                       !- Polygon Clipping Algorithm
  512,                                    !- Pixel Counting Resolution
  ,                                       !- Sky Diffuse Modeling Algorithm
  No,                                     !- Output External Shading Calculation Results
  No,                                     !- Disable Self-Shading Within Shading Zone Groups
  No;                                     !- Disable Self-Shading From Shading Zone Groups to Other Zones

OS:SurfaceConvectionAlgorithm:Outside,
  {c09aecb9-15ea-413e-8d53-189a39615c49}, !- Handle
  DOE-2;                                  !- Algorithm

OS:SurfaceConvectionAlgorithm:Inside,
  {dfdc654a-d7e6-4209-92c3-01771dae0a63}, !- Handle
  TARP;                                   !- Algorithm

OS:ZoneCapacitanceMultiplier:ResearchSpecial,
  {eec78c13-3d3c-40c3-b140-fbca2d9a1087}, !- Handle
  7,                                      !- Temperature Capacity Multiplier
  15,                                     !- Humidity Capacity Multiplier
  ;                                       !- Carbon Dioxide Capacity Multiplier

OS:ConvergenceLimits,
  {83246c69-4647-4177-8914-5f06640eee2b}, !- Handle
  0;                                      !- Minimum System Timestep {minutes}

OS:RunPeriod,
  {5c4e9750-b7b9-41d0-989e-404371872e9a}, !- Handle
  Run Period 1,                           !- Name
  1,                                      !- Begin Month
  1,                                      !- Begin Day of Month
  12,                                     !- End Month
  31,                                     !- End Day of Month
  ,                                       !- Use Weather File Holidays and Special Days
  ,                                       !- Use Weather File Daylight Saving Period
  ,                                       !- Apply Weekend Holiday Rule
  ,                                       !- Use Weather File Rain Indicators
  ,                                       !- Use Weather File Snow Indicators
  ;                                       !- Number of Times Runperiod to be Repeated

OS:PerformancePrecisionTradeoffs,
  {b1d31411-610a-4029-b838-899911519328}, !- Handle
  ,                                       !- Use Coil Direct Solutions
  CarrollMRT;                             !- Zone Radiant Exchange Algorithm

OS:WeatherFile,
  {282f4bc6-adff-42e2-804e-1ad7e489f8d2}, !- Handle
  Buffalo Niagara Intl Ap,                !- City
  NY,                                     !- State Province Region
  USA,                                    !- Country
  TMY3,                                   !- Data Source
  725280,                                 !- WMO Number
  42.93,                                  !- Latitude {deg}
  -78.73,                                 !- Longitude {deg}
  -5,                                     !- Time Zone {hr}
  215,                                    !- Elevation {m}
  /Users/nmoore/github/urbanopt-example-geojson-project/example_project/weather/USA_NY_Buffalo-Greater.Buffalo.Intl.AP.725280_TMY3.epw, !- Url
  6B50E0FF,                               !- Checksum
  ,                                       !- Start Date Actual Year
  Sunday;                                 !- Start Day of Week

OS:YearDescription,
  {69d413e5-1c06-459a-a5e5-5f2fea884e25}, !- Handle
  2007,                                   !- Calendar Year
  ,                                       !- Day of Week for Start Day
  ;                                       !- Is Leap Year

OS:Site,
  {0fdc98d5-695b-4ada-b5d5-7a0cde5765e5}, !- Handle
  Buffalo Niagara Intl Ap_NY,             !- Name
  42.93,                                  !- Latitude {deg}
  -78.73,                                 !- Longitude {deg}
  -5,                                     !- Time Zone {hr}
  215,                                    !- Elevation {m}
  Suburbs,                                !- Terrain
  Yes;                                    !- Keep Site Location Information

OS:RunPeriodControl:DaylightSavingTime,
  {e804731e-afdc-435d-a7ee-0df3fb63c2a8}, !- Handle
  Mar 12,                                 !- Start Date
  Nov 5;                                  !- End Date

OS:Site:GroundTemperature:Shallow,
  {49d6298c-f94c-4edc-8aee-6dff1e113d28}, !- Handle
  4.30207395723828,                       !- January Surface Ground Temperature {C}
  2.29327249652502,                       !- February Surface Ground Temperature {C}
  2.13240047156047,                       !- March Surface Ground Temperature {C}
  3.08567940719286,                       !- April Surface Ground Temperature {C}
  6.91256312497526,                       !- May Surface Ground Temperature {C}
  10.7216195949507,                       !- June Surface Ground Temperature {C}
  14.0238679822574,                       !- July Surface Ground Temperature {C}
  16.1157611184724,                       !- August Surface Ground Temperature {C}
  16.2934789303462,                       !- September Surface Ground Temperature {C}
  14.5920754632847,                       !- October Surface Ground Temperature {C}
  11.374036348653,                        !- November Surface Ground Temperature {C}
  7.68182621661674;                       !- December Surface Ground Temperature {C}

OS:ThermalZone,
  {748a6c99-61ed-4919-a64a-9b1aee57e743}, !- Handle
  conditioned space,                      !- Name
  1,                                      !- Multiplier
  ,                                       !- Ceiling Height {m}
  692.06373070848,                        !- Volume {m3}
  ,                                       !- Floor Area {m2}
  ,                                       !- Zone Inside Convection Algorithm
  ,                                       !- Zone Outside Convection Algorithm
  ,                                       !- Zone Conditioning Equipment List Name
  {b04ae60a-3824-45c1-a011-651e5dbca35c}, !- Zone Air Inlet Port List
  {695bcbc4-301c-4d48-9d3b-9489a134e81b}, !- Zone Air Exhaust Port List
  {d161992b-5097-4987-b77c-a1a7f5bc7286}, !- Zone Air Node Name
  {e0692e11-9a5c-4444-8ee4-d92c6ea3dc5e}, !- Zone Return Air Port List
  ,                                       !- Primary Daylighting Control Name
  ,                                       !- Fraction of Zone Controlled by Primary Daylighting Control
  ,                                       !- Secondary Daylighting Control Name
  ,                                       !- Fraction of Zone Controlled by Secondary Daylighting Control
  ,                                       !- Illuminance Map Name
  ,                                       !- Group Rendering Name
  {d1b953e9-8cd6-45ba-ae9a-c4a2b6128b7b}, !- Thermostat Name
  No;                                     !- Use Ideal Air Loads

OS:Node,
  {163e3a74-b214-4d95-abbd-7bae7d0b8e64}, !- Handle
  Node 1,                                 !- Name
  {d161992b-5097-4987-b77c-a1a7f5bc7286}, !- Inlet Port
  ;                                       !- Outlet Port

OS:Connection,
  {d161992b-5097-4987-b77c-a1a7f5bc7286}, !- Handle
  {748a6c99-61ed-4919-a64a-9b1aee57e743}, !- Source Object
  11,                                     !- Outlet Port
  {163e3a74-b214-4d95-abbd-7bae7d0b8e64}, !- Target Object
  2;                                      !- Inlet Port

OS:PortList,
  {b04ae60a-3824-45c1-a011-651e5dbca35c}, !- Handle
  {748a6c99-61ed-4919-a64a-9b1aee57e743}, !- HVAC Component
  {952685c9-aa30-4e3d-8f8d-e324c64163ab}; !- Port 1

OS:PortList,
  {695bcbc4-301c-4d48-9d3b-9489a134e81b}, !- Handle
  {748a6c99-61ed-4919-a64a-9b1aee57e743}; !- HVAC Component

OS:PortList,
  {e0692e11-9a5c-4444-8ee4-d92c6ea3dc5e}, !- Handle
  {748a6c99-61ed-4919-a64a-9b1aee57e743}, !- HVAC Component
  {245c9a04-88f6-4253-8bf9-ca0362c7976f}; !- Port 1

OS:Sizing:Zone,
  {b056e09f-e902-4e16-b5d0-fd188f7d55de}, !- Handle
  {748a6c99-61ed-4919-a64a-9b1aee57e743}, !- Zone or ZoneList Name
  SupplyAirTemperature,                   !- Zone Cooling Design Supply Air Temperature Input Method
  14,                                     !- Zone Cooling Design Supply Air Temperature {C}
  11.11,                                  !- Zone Cooling Design Supply Air Temperature Difference {deltaC}
  SupplyAirTemperature,                   !- Zone Heating Design Supply Air Temperature Input Method
  40,                                     !- Zone Heating Design Supply Air Temperature {C}
  11.11,                                  !- Zone Heating Design Supply Air Temperature Difference {deltaC}
  0.0085,                                 !- Zone Cooling Design Supply Air Humidity Ratio {kg-H2O/kg-air}
  0.008,                                  !- Zone Heating Design Supply Air Humidity Ratio {kg-H2O/kg-air}
  ,                                       !- Zone Heating Sizing Factor
  ,                                       !- Zone Cooling Sizing Factor
  DesignDay,                              !- Cooling Design Air Flow Method
  ,                                       !- Cooling Design Air Flow Rate {m3/s}
  ,                                       !- Cooling Minimum Air Flow per Zone Floor Area {m3/s-m2}
  ,                                       !- Cooling Minimum Air Flow {m3/s}
  ,                                       !- Cooling Minimum Air Flow Fraction
  DesignDay,                              !- Heating Design Air Flow Method
  ,                                       !- Heating Design Air Flow Rate {m3/s}
  ,                                       !- Heating Maximum Air Flow per Zone Floor Area {m3/s-m2}
  ,                                       !- Heating Maximum Air Flow {m3/s}
  ,                                       !- Heating Maximum Air Flow Fraction
  No,                                     !- Account for Dedicated Outdoor Air System
  NeutralSupplyAir,                       !- Dedicated Outdoor Air System Control Strategy
  autosize,                               !- Dedicated Outdoor Air Low Setpoint Temperature for Design {C}
  autosize,                               !- Dedicated Outdoor Air High Setpoint Temperature for Design {C}
  Sensible Load Only No Latent Load,      !- Zone Load Sizing Method
  HumidityRatioDifference,                !- Zone Latent Cooling Design Supply Air Humidity Ratio Input Method
  ,                                       !- Zone Dehumidification Design Supply Air Humidity Ratio {kgWater/kgDryAir}
  0.005,                                  !- Zone Cooling Design Supply Air Humidity Ratio Difference {kgWater/kgDryAir}
  HumidityRatioDifference,                !- Zone Latent Heating Design Supply Air Humidity Ratio Input Method
  ,                                       !- Zone Humidification Design Supply Air Humidity Ratio {kgWater/kgDryAir}
  0.005,                                  !- Zone Humidification Design Supply Air Humidity Ratio Difference {kgWater/kgDryAir}
  ,                                       !- Zone Humidistat Dehumidification Set Point Schedule Name
  ,                                       !- Zone Humidistat Humidification Set Point Schedule Name
  ,                                       !- Design Zone Air Distribution Effectiveness in Cooling Mode
  ,                                       !- Design Zone Air Distribution Effectiveness in Heating Mode
  ,                                       !- Design Zone Secondary Recirculation Fraction {dimensionless}
  ,                                       !- Design Minimum Zone Ventilation Efficiency {dimensionless}
  Coincident;                             !- Sizing Option

OS:ZoneHVAC:EquipmentList,
  {d7ab7a61-b9bc-43d4-b457-7e8a5b5c0243}, !- Handle
  Zone HVAC Equipment List 1,             !- Name
  {748a6c99-61ed-4919-a64a-9b1aee57e743}, !- Thermal Zone
  ,                                       !- Load Distribution Scheme
  {c991320b-24f7-4805-844d-eb104f3379cb}, !- Zone Equipment 1
  1,                                      !- Zone Equipment Cooling Sequence 1
  1,                                      !- Zone Equipment Heating or No-Load Sequence 1
  {a706c947-9eb8-4a5f-9215-47e55623ae9d}, !- Zone Equipment Sequential Cooling Fraction Schedule Name 1
  {fc5c27af-be1a-402a-8905-def33617e46a}; !- Zone Equipment Sequential Heating Fraction Schedule Name 1

OS:AdditionalProperties,
  {3562f59a-c895-40d9-9736-fb2dc54c6af6}, !- Handle
  {748a6c99-61ed-4919-a64a-9b1aee57e743}, !- Object Name
  ObjectType,                             !- Feature Name 1
  String,                                 !- Feature Data Type 1
  conditioned space;                      !- Feature Value 1

OS:Space,
  {4e26017a-3600-4946-9f50-36ff5825d806}, !- Handle
  conditioned space 1,                    !- Name
  ,                                       !- Space Type Name
  ,                                       !- Default Construction Set Name
  ,                                       !- Default Schedule Set Name
  ,                                       !- Direction of Relative North {deg}
  ,                                       !- X Origin {m}
  ,                                       !- Y Origin {m}
  ,                                       !- Z Origin {m}
  ,                                       !- Building Story Name
  {748a6c99-61ed-4919-a64a-9b1aee57e743}, !- Thermal Zone Name
  ,                                       !- Part of Total Floor Area
  ,                                       !- Design Specification Outdoor Air Object Name
  ,                                       !- Building Unit Name
  692.06373070848;                        !- Volume {m3}

OS:Schedule:Ruleset,
  {d44b1216-d83e-44c4-bac7-22e75f91b89d}, !- Handle
  heating setpoint,                       !- Name
  {3f768ac6-c89c-4cb2-8def-8d28bafb5dc0}, !- Schedule Type Limits Name
  {0d238977-1612-4b85-8659-55b06297767a}; !- Default Day Schedule Name

OS:Schedule:Day,
  {0d238977-1612-4b85-8659-55b06297767a}, !- Handle
  heating setpoint default day,           !- Name
  {3f768ac6-c89c-4cb2-8def-8d28bafb5dc0}, !- Schedule Type Limits Name
  ,                                       !- Interpolate to Timestep
  24,                                     !- Hour 1
  0,                                      !- Minute 1
  0;                                      !- Value Until Time 1

OS:Schedule:Rule,
  {dad921fd-f1d8-4d2d-91c5-bd28bca4d6c2}, !- Handle
  heating setpoint allday rule,           !- Name
  {d44b1216-d83e-44c4-bac7-22e75f91b89d}, !- Schedule Ruleset Name
  0,                                      !- Rule Order
  {98c41ba6-2e7c-4590-b0d9-97e536521ae3}, !- Day Schedule Name
  Yes,                                    !- Apply Sunday
  Yes,                                    !- Apply Monday
  Yes,                                    !- Apply Tuesday
  Yes,                                    !- Apply Wednesday
  Yes,                                    !- Apply Thursday
  Yes,                                    !- Apply Friday
  Yes,                                    !- Apply Saturday
  DateRange,                              !- Date Specification Type
  1,                                      !- Start Month
  1,                                      !- Start Day
  12,                                     !- End Month
  31;                                     !- End Day

OS:Schedule:Day,
  {98c41ba6-2e7c-4590-b0d9-97e536521ae3}, !- Handle
  heating setpoint day,                   !- Name
  {3f768ac6-c89c-4cb2-8def-8d28bafb5dc0}, !- Schedule Type Limits Name
  ,                                       !- Interpolate to Timestep
  24,                                     !- Hour 1
  0,                                      !- Minute 1
  20;                                     !- Value Until Time 1

OS:Schedule:Ruleset,
  {2de34ecb-c020-45c3-b04c-5676970580f3}, !- Handle
  cooling setpoint,                       !- Name
  {3f768ac6-c89c-4cb2-8def-8d28bafb5dc0}, !- Schedule Type Limits Name
  {fdd76b63-5bdd-43ea-a3fe-143111e4e716}; !- Default Day Schedule Name

OS:Schedule:Day,
  {fdd76b63-5bdd-43ea-a3fe-143111e4e716}, !- Handle
  cooling setpoint default day,           !- Name
  {3f768ac6-c89c-4cb2-8def-8d28bafb5dc0}, !- Schedule Type Limits Name
  ,                                       !- Interpolate to Timestep
  24,                                     !- Hour 1
  0,                                      !- Minute 1
  0;                                      !- Value Until Time 1

OS:Schedule:Rule,
  {fe2f22e6-6acc-40f9-ba4e-ff2466372a4b}, !- Handle
  cooling setpoint allday rule,           !- Name
  {2de34ecb-c020-45c3-b04c-5676970580f3}, !- Schedule Ruleset Name
  0,                                      !- Rule Order
  {f35922a7-5c87-4777-b302-7790854b66f0}, !- Day Schedule Name
  Yes,                                    !- Apply Sunday
  Yes,                                    !- Apply Monday
  Yes,                                    !- Apply Tuesday
  Yes,                                    !- Apply Wednesday
  Yes,                                    !- Apply Thursday
  Yes,                                    !- Apply Friday
  Yes,                                    !- Apply Saturday
  DateRange,                              !- Date Specification Type
  1,                                      !- Start Month
  1,                                      !- Start Day
  12,                                     !- End Month
  31;                                     !- End Day

OS:Schedule:Day,
  {f35922a7-5c87-4777-b302-7790854b66f0}, !- Handle
  cooling setpoint day,                   !- Name
  {3f768ac6-c89c-4cb2-8def-8d28bafb5dc0}, !- Schedule Type Limits Name
  ,                                       !- Interpolate to Timestep
  24,                                     !- Hour 1
  0,                                      !- Minute 1
  25.5555555555556;                       !- Value Until Time 1

OS:ThermostatSetpoint:DualSetpoint,
  {d1b953e9-8cd6-45ba-ae9a-c4a2b6128b7b}, !- Handle
  conditioned space temperature setpoint, !- Name
  {d44b1216-d83e-44c4-bac7-22e75f91b89d}, !- Heating Setpoint Temperature Schedule Name
  {2de34ecb-c020-45c3-b04c-5676970580f3}, !- Cooling Setpoint Temperature Schedule Name
  0;                                      !- Temperature Difference Between Cutout And Setpoint {deltaC}

OS:ScheduleTypeLimits,
  {3f768ac6-c89c-4cb2-8def-8d28bafb5dc0}, !- Handle
  Temperature,                            !- Name
  ,                                       !- Lower Limit Value
  ,                                       !- Upper Limit Value
  Continuous,                             !- Numeric Type
  Temperature;                            !- Unit Type

OS:Surface,
  {bdc1337a-2e6a-4c2f-9e37-bd8a61bdbdcc}, !- Handle
  Roof1,                                  !- Name
  RoofCeiling,                            !- Surface Type
  {642415ac-5407-4f40-b88a-a9939a0495eb}, !- Construction Name
  {c039175d-69c7-49d9-adac-134ad683a528}, !- Space Name
  Outdoors,                               !- Outside Boundary Condition
  ,                                       !- Outside Boundary Condition Object
  SunExposed,                             !- Sun Exposure
  WindExposed,                            !- Wind Exposure
  ,                                       !- View Factor to Ground
  ,                                       !- Number of Vertices
  -26.9347048849634, 58.0557891618865, 2.4384, !- X,Y,Z Vertex 1 {m}
  -26.9347048849634, 46.7895631136661, 8.0715130241102, !- X,Y,Z Vertex 2 {m}
  -14.3386812381136, 46.7895631136661, 8.0715130241102, !- X,Y,Z Vertex 3 {m}
  -14.3386812381136, 58.0557891618865, 2.4384; !- X,Y,Z Vertex 4 {m}

OS:AdditionalProperties,
  {66b4c901-a052-4daf-b5e1-5458dce0cbc8}, !- Handle
  {bdc1337a-2e6a-4c2f-9e37-bd8a61bdbdcc}, !- Object Name
  Length,                                 !- Feature Name 1
  Double,                                 !- Feature Data Type 1
  41.325536899113608,                     !- Feature Value 1
  Width,                                  !- Feature Name 2
  Double,                                 !- Feature Data Type 2
  41.325536899113601,                     !- Feature Value 2
  Azimuth,                                !- Feature Name 3
  Integer,                                !- Feature Data Type 3
  0,                                      !- Feature Value 3
  Tilt,                                   !- Feature Name 4
  Double,                                 !- Feature Data Type 4
  0.5,                                    !- Feature Value 4
  SurfaceType,                            !- Feature Name 5
  String,                                 !- Feature Data Type 5
  Roof;                                   !- Feature Value 5

OS:ThermalZone,
  {22bba58e-bb05-4856-9e59-d611282b3d21}, !- Handle
  attic - vented,                         !- Name
  1,                                      !- Multiplier
  ,                                       !- Ceiling Height {m}
  356.389957095237,                       !- Volume {m3}
  ,                                       !- Floor Area {m2}
  ,                                       !- Zone Inside Convection Algorithm
  ,                                       !- Zone Outside Convection Algorithm
  ,                                       !- Zone Conditioning Equipment List Name
  {43da0126-bd37-4175-8e59-23c4d52bcec2}, !- Zone Air Inlet Port List
  {16beda97-5fd7-4495-9150-99afe4cfc9dd}, !- Zone Air Exhaust Port List
  {eaf88c8c-1bd7-4c15-b8e7-537275f893d1}, !- Zone Air Node Name
  {4997f991-ab6e-4bd5-ae28-1e7132606b33}, !- Zone Return Air Port List
  ,                                       !- Primary Daylighting Control Name
  ,                                       !- Fraction of Zone Controlled by Primary Daylighting Control
  ,                                       !- Secondary Daylighting Control Name
  ,                                       !- Fraction of Zone Controlled by Secondary Daylighting Control
  ,                                       !- Illuminance Map Name
  ,                                       !- Group Rendering Name
  ,                                       !- Thermostat Name
  No;                                     !- Use Ideal Air Loads

OS:Node,
  {30e2ed50-a12f-49f9-8afb-31ead2c00bea}, !- Handle
  Node 2,                                 !- Name
  {eaf88c8c-1bd7-4c15-b8e7-537275f893d1}, !- Inlet Port
  ;                                       !- Outlet Port

OS:Connection,
  {eaf88c8c-1bd7-4c15-b8e7-537275f893d1}, !- Handle
  {22bba58e-bb05-4856-9e59-d611282b3d21}, !- Source Object
  11,                                     !- Outlet Port
  {30e2ed50-a12f-49f9-8afb-31ead2c00bea}, !- Target Object
  2;                                      !- Inlet Port

OS:PortList,
  {43da0126-bd37-4175-8e59-23c4d52bcec2}, !- Handle
  {22bba58e-bb05-4856-9e59-d611282b3d21}; !- HVAC Component

OS:PortList,
  {16beda97-5fd7-4495-9150-99afe4cfc9dd}, !- Handle
  {22bba58e-bb05-4856-9e59-d611282b3d21}; !- HVAC Component

OS:PortList,
  {4997f991-ab6e-4bd5-ae28-1e7132606b33}, !- Handle
  {22bba58e-bb05-4856-9e59-d611282b3d21}; !- HVAC Component

OS:Sizing:Zone,
  {6f60ccbe-9ad9-4f3e-bd12-01dbcfd66b8c}, !- Handle
  {22bba58e-bb05-4856-9e59-d611282b3d21}, !- Zone or ZoneList Name
  SupplyAirTemperature,                   !- Zone Cooling Design Supply Air Temperature Input Method
  14,                                     !- Zone Cooling Design Supply Air Temperature {C}
  11.11,                                  !- Zone Cooling Design Supply Air Temperature Difference {deltaC}
  SupplyAirTemperature,                   !- Zone Heating Design Supply Air Temperature Input Method
  40,                                     !- Zone Heating Design Supply Air Temperature {C}
  11.11,                                  !- Zone Heating Design Supply Air Temperature Difference {deltaC}
  0.0085,                                 !- Zone Cooling Design Supply Air Humidity Ratio {kg-H2O/kg-air}
  0.008,                                  !- Zone Heating Design Supply Air Humidity Ratio {kg-H2O/kg-air}
  ,                                       !- Zone Heating Sizing Factor
  ,                                       !- Zone Cooling Sizing Factor
  DesignDay,                              !- Cooling Design Air Flow Method
  ,                                       !- Cooling Design Air Flow Rate {m3/s}
  ,                                       !- Cooling Minimum Air Flow per Zone Floor Area {m3/s-m2}
  ,                                       !- Cooling Minimum Air Flow {m3/s}
  ,                                       !- Cooling Minimum Air Flow Fraction
  DesignDay,                              !- Heating Design Air Flow Method
  ,                                       !- Heating Design Air Flow Rate {m3/s}
  ,                                       !- Heating Maximum Air Flow per Zone Floor Area {m3/s-m2}
  ,                                       !- Heating Maximum Air Flow {m3/s}
  ,                                       !- Heating Maximum Air Flow Fraction
  No,                                     !- Account for Dedicated Outdoor Air System
  NeutralSupplyAir,                       !- Dedicated Outdoor Air System Control Strategy
  autosize,                               !- Dedicated Outdoor Air Low Setpoint Temperature for Design {C}
  autosize,                               !- Dedicated Outdoor Air High Setpoint Temperature for Design {C}
  Sensible Load Only No Latent Load,      !- Zone Load Sizing Method
  HumidityRatioDifference,                !- Zone Latent Cooling Design Supply Air Humidity Ratio Input Method
  ,                                       !- Zone Dehumidification Design Supply Air Humidity Ratio {kgWater/kgDryAir}
  0.005,                                  !- Zone Cooling Design Supply Air Humidity Ratio Difference {kgWater/kgDryAir}
  HumidityRatioDifference,                !- Zone Latent Heating Design Supply Air Humidity Ratio Input Method
  ,                                       !- Zone Humidification Design Supply Air Humidity Ratio {kgWater/kgDryAir}
  0.005,                                  !- Zone Humidification Design Supply Air Humidity Ratio Difference {kgWater/kgDryAir}
  ,                                       !- Zone Humidistat Dehumidification Set Point Schedule Name
  ,                                       !- Zone Humidistat Humidification Set Point Schedule Name
  ,                                       !- Design Zone Air Distribution Effectiveness in Cooling Mode
  ,                                       !- Design Zone Air Distribution Effectiveness in Heating Mode
  ,                                       !- Design Zone Secondary Recirculation Fraction {dimensionless}
  ,                                       !- Design Minimum Zone Ventilation Efficiency {dimensionless}
  Coincident;                             !- Sizing Option

OS:ZoneHVAC:EquipmentList,
  {074f3b66-67e7-4417-a35f-a9b21b72436a}, !- Handle
  Zone HVAC Equipment List 2,             !- Name
  {22bba58e-bb05-4856-9e59-d611282b3d21}; !- Thermal Zone

OS:AdditionalProperties,
  {5fe2c51c-7fb1-4c30-b0d8-264d0feab09d}, !- Handle
  {22bba58e-bb05-4856-9e59-d611282b3d21}, !- Object Name
  ObjectType,                             !- Feature Name 1
  String,                                 !- Feature Data Type 1
  attic - vented;                         !- Feature Value 1

OS:Space,
  {c039175d-69c7-49d9-adac-134ad683a528}, !- Handle
  attic - vented 1,                       !- Name
  ,                                       !- Space Type Name
  ,                                       !- Default Construction Set Name
  ,                                       !- Default Schedule Set Name
  ,                                       !- Direction of Relative North {deg}
  ,                                       !- X Origin {m}
  ,                                       !- Y Origin {m}
  ,                                       !- Z Origin {m}
  ,                                       !- Building Story Name
  {22bba58e-bb05-4856-9e59-d611282b3d21}, !- Thermal Zone Name
  ,                                       !- Part of Total Floor Area
  ,                                       !- Design Specification Outdoor Air Object Name
  ,                                       !- Building Unit Name
  356.389957095237;                       !- Volume {m3}

OS:Material,
  {0afb8481-8c8a-4955-a470-23cc4988fff7}, !- Handle
  asphalt or fiberglass shingles,         !- Name
  Rough,                                  !- Roughness
  0.00635,                                !- Thickness {m}
  0.162714,                               !- Conductivity {W/m-K}
  1121.4,                                 !- Density {kg/m3}
  1465.45,                                !- Specific Heat {J/kg-K}
  0.9,                                    !- Thermal Absorptance
  0.85,                                   !- Solar Absorptance