
OS:Version,
  {09af0343-a5c3-49d3-beec-da8d37734d25}, !- Handle
  3.9.0;                                  !- Version Identifier

OS:SimulationControl,
  {9ae1994a-5a07-4ae8-ae43-cd437b1a6b39}, !- Handle
  ,                                       !- Do Zone Sizing Calculation
  ,                                       !- Do System Sizing Calculation
  ,                                       !- Do Plant Sizing Calculation
  No;                                     !- Run Simulation for Sizing Periods

OS:Timestep,
  {dde5c600-d675-470a-be84-4b0062258831}, !- Handle
  1;                                      !- Number of Timesteps per Hour

OS:ShadowCalculation,
  {ec3b609e-2a54-4ecc-aa85-11bcfb4dacd9}, !- Handle
  PolygonClipping,                        !- Shading Calculation Method
  ,                                       !- Shading Calculation Update Frequency Method
  20,                                     !- Shading Calculation Update Frequency
  200,                                    !- Maximum Figures in Shadow Overlap Calculations
  ,                                       !- Polygon Clipping Algorithm
  512,                                    !- Pixel Counting Resolution
  ,                                       !- Sky Diffuse Modeling Algorithm
  No,                                     !- Output External Shading Calculation Results
  No,                                     !- Disable Self-Shading Within Shading Zone Groups
  No;                                     !- Disable Self-Shading From Shading Zone Groups to Other Zones

OS:SurfaceConvectionAlgorithm:Outside,
  {e8d8f11c-fec5-41e3-9bd2-0f347b6a082e}, !- Handle
  DOE-2;                                  !- Algorithm

OS:SurfaceConvectionAlgorithm:Inside,
  {9dc70feb-770c-4186-9d0c-1e1fc76bb5d7}, !- Handle
  TARP;                                   !- Algorithm

OS:ZoneCapacitanceMultiplier:ResearchSpecial,
  {4bc5efe0-0589-4c5b-9481-8ea34cbd6d78}, !- Handle
  7,                                      !- Temperature Capacity Multiplier
  15,                                     !- Humidity Capacity Multiplier
  ;                                       !- Carbon Dioxide Capacity Multiplier

OS:ConvergenceLimits,
  {f20f7310-7409-4a31-b145-cdec390ac902}, !- Handle
  0;                                      !- Minimum System Timestep {minutes}

OS:RunPeriod,
  {5c61fabe-472c-407c-a9fc-214a8ecd1791}, !- Handle
  Run Period 1,                           !- Name
  1,                                      !- Begin Month
  1,                                      !- Begin Day of Month
  12,                                     !- End Month
  31,                                     !- End Day of Month
  ,                                       !- Use Weather File Holidays and Special Days
  ,                                       !- Use Weather File Daylight Saving Period
  ,                                       !- Apply Weekend Holiday Rule
  ,                                       !- Use Weather File Rain Indicators
  ,                                       !- Use Weather File Snow Indicators
  ;                                       !- Number of Times Runperiod to be Repeated

OS:PerformancePrecisionTradeoffs,
  {1c93c969-68f0-459e-8cea-0a6eaff6fcc9}, !- Handle
  ,                                       !- Use Coil Direct Solutions
  CarrollMRT;                             !- Zone Radiant Exchange Algorithm

OS:WeatherFile,
  {0d4520f1-4e33-4d1c-b92b-22899fdc3057}, !- Handle
  Buffalo Niagara Intl Ap,                !- City
  NY,                                     !- State Province Region
  USA,                                    !- Country
  TMY3,                                   !- Data Source
  725280,                                 !- WMO Number
  42.93,                                  !- Latitude {deg}
  -78.73,                                 !- Longitude {deg}
  -5,                                     !- Time Zone {hr}
  215,                                    !- Elevation {m}
  /Users/nmoore/github/urbanopt-example-geojson-project/example_project/weather/USA_NY_Buffalo-Greater.Buffalo.Intl.AP.725280_TMY3.epw, !- Url
  6B50E0FF,                               !- Checksum
  ,                                       !- Start Date Actual Year
  Sunday;                                 !- Start Day of Week

OS:YearDescription,
  {7333f2ea-1063-44dd-8729-6988334d6210}, !- Handle
  2007,                                   !- Calendar Year
  ,                                       !- Day of Week for Start Day
  ;                                       !- Is Leap Year

OS:Site,
  {2155dd83-70bc-4d5e-8d4b-263953ae4626}, !- Handle
  Buffalo Niagara Intl Ap_NY,             !- Name
  42.93,                                  !- Latitude {deg}
  -78.73,                                 !- Longitude {deg}
  -5,                                     !- Time Zone {hr}
  215,                                    !- Elevation {m}
  Suburbs,                                !- Terrain
  Yes;                                    !- Keep Site Location Information

OS:RunPeriodControl:DaylightSavingTime,
  {32dbc453-2b3f-4529-a525-5dc61b3cbd22}, !- Handle
  Mar 12,                                 !- Start Date
  Nov 5;                                  !- End Date

OS:Site:GroundTemperature:Shallow,
  {1e417f09-9898-4054-800b-d72dddae7361}, !- Handle
  4.30207395723828,                       !- January Surface Ground Temperature {C}
  2.29327249652502,                       !- February Surface Ground Temperature {C}
  2.13240047156047,                       !- March Surface Ground Temperature {C}
  3.08567940719286,                       !- April Surface Ground Temperature {C}
  6.91256312497526,                       !- May Surface Ground Temperature {C}
  10.7216195949507,                       !- June Surface Ground Temperature {C}
  14.0238679822574,                       !- July Surface Ground Temperature {C}
  16.1157611184724,                       !- August Surface Ground Temperature {C}
  16.2934789303462,                       !- September Surface Ground Temperature {C}
  14.5920754632847,                       !- October Surface Ground Temperature {C}
  11.374036348653,                        !- November Surface Ground Temperature {C}
  7.68182621661674;                       !- December Surface Ground Temperature {C}

OS:ThermalZone,
  {1a8111e1-9490-41ae-bcb6-ab39ffc1bab3}, !- Handle
  conditioned space,                      !- Name
  1,                                      !- Multiplier
  ,                                       !- Ceiling Height {m}
  692.06373070848,                        !- Volume {m3}
  ,                                       !- Floor Area {m2}
  ,                                       !- Zone Inside Convection Algorithm
  ,                                       !- Zone Outside Convection Algorithm
  ,                                       !- Zone Conditioning Equipment List Name
  {3ce6669a-50e8-46f8-beb1-77ebb21bc3f5}, !- Zone Air Inlet Port List
  {f0d965f7-8cc7-4a18-aac7-653a36d8f242}, !- Zone Air Exhaust Port List
  {ceeebc06-3d46-4386-8e4e-4bdd20609edf}, !- Zone Air Node Name
  {264c7300-4baf-4c9b-b004-7461de8b702c}, !- Zone Return Air Port List
  ,                                       !- Primary Daylighting Control Name
  ,                                       !- Fraction of Zone Controlled by Primary Daylighting Control
  ,                                       !- Secondary Daylighting Control Name
  ,                                       !- Fraction of Zone Controlled by Secondary Daylighting Control
  ,                                       !- Illuminance Map Name
  ,                                       !- Group Rendering Name
  {2a63d00c-2275-4d31-9224-5c1fa1271d38}, !- Thermostat Name
  No;                                     !- Use Ideal Air Loads

OS:Node,
  {df20c3d8-7f0c-42b2-bbfe-dcb50932855d}, !- Handle
  Node 1,                                 !- Name
  {ceeebc06-3d46-4386-8e4e-4bdd20609edf}, !- Inlet Port
  ;                                       !- Outlet Port

OS:Connection,
  {ceeebc06-3d46-4386-8e4e-4bdd20609edf}, !- Handle
  {1a8111e1-9490-41ae-bcb6-ab39ffc1bab3}, !- Source Object
  11,                                     !- Outlet Port
  {df20c3d8-7f0c-42b2-bbfe-dcb50932855d}, !- Target Object
  2;                                      !- Inlet Port

OS:PortList,
  {3ce6669a-50e8-46f8-beb1-77ebb21bc3f5}, !- Handle
  {1a8111e1-9490-41ae-bcb6-ab39ffc1bab3}, !- HVAC Component
  {73b20a75-1741-4355-af33-3e39ba3842ec}; !- Port 1

OS:PortList,
  {f0d965f7-8cc7-4a18-aac7-653a36d8f242}, !- Handle
  {1a8111e1-9490-41ae-bcb6-ab39ffc1bab3}; !- HVAC Component

OS:PortList,
  {264c7300-4baf-4c9b-b004-7461de8b702c}, !- Handle
  {1a8111e1-9490-41ae-bcb6-ab39ffc1bab3}, !- HVAC Component
  {c40e98e5-7d14-475c-bcdb-d1703f028d8b}; !- Port 1

OS:Sizing:Zone,
  {51618c81-6684-4a87-b557-d832579c1d28}, !- Handle
  {1a8111e1-9490-41ae-bcb6-ab39ffc1bab3}, !- Zone or ZoneList Name
  SupplyAirTemperature,                   !- Zone Cooling Design Supply Air Temperature Input Method
  14,                                     !- Zone Cooling Design Supply Air Temperature {C}
  11.11,                                  !- Zone Cooling Design Supply Air Temperature Difference {deltaC}
  SupplyAirTemperature,                   !- Zone Heating Design Supply Air Temperature Input Method
  40,                                     !- Zone Heating Design Supply Air Temperature {C}
  11.11,                                  !- Zone Heating Design Supply Air Temperature Difference {deltaC}
  0.0085,                                 !- Zone Cooling Design Supply Air Humidity Ratio {kg-H2O/kg-air}
  0.008,                                  !- Zone Heating Design Supply Air Humidity Ratio {kg-H2O/kg-air}
  ,                                       !- Zone Heating Sizing Factor
  ,                                       !- Zone Cooling Sizing Factor
  DesignDay,                              !- Cooling Design Air Flow Method
  ,                                       !- Cooling Design Air Flow Rate {m3/s}
  ,                                       !- Cooling Minimum Air Flow per Zone Floor Area {m3/s-m2}
  ,                                       !- Cooling Minimum Air Flow {m3/s}
  ,                                       !- Cooling Minimum Air Flow Fraction
  DesignDay,                              !- Heating Design Air Flow Method
  ,                                       !- Heating Design Air Flow Rate {m3/s}
  ,                                       !- Heating Maximum Air Flow per Zone Floor Area {m3/s-m2}
  ,                                       !- Heating Maximum Air Flow {m3/s}
  ,                                       !- Heating Maximum Air Flow Fraction
  No,                                     !- Account for Dedicated Outdoor Air System
  NeutralSupplyAir,                       !- Dedicated Outdoor Air System Control Strategy
  autosize,                               !- Dedicated Outdoor Air Low Setpoint Temperature for Design {C}
  autosize,                               !- Dedicated Outdoor Air High Setpoint Temperature for Design {C}
  Sensible Load Only No Latent Load,      !- Zone Load Sizing Method
  HumidityRatioDifference,                !- Zone Latent Cooling Design Supply Air Humidity Ratio Input Method
  ,                                       !- Zone Dehumidification Design Supply Air Humidity Ratio {kgWater/kgDryAir}
  0.005,                                  !- Zone Cooling Design Supply Air Humidity Ratio Difference {kgWater/kgDryAir}
  HumidityRatioDifference,                !- Zone Latent Heating Design Supply Air Humidity Ratio Input Method
  ,                                       !- Zone Humidification Design Supply Air Humidity Ratio {kgWater/kgDryAir}
  0.005,                                  !- Zone Humidification Design Supply Air Humidity Ratio Difference {kgWater/kgDryAir}
  ,                                       !- Zone Humidistat Dehumidification Set Point Schedule Name
  ,                                       !- Zone Humidistat Humidification Set Point Schedule Name
  ,                                       !- Design Zone Air Distribution Effectiveness in Cooling Mode
  ,                                       !- Design Zone Air Distribution Effectiveness in Heating Mode
  ,                                       !- Design Zone Secondary Recirculation Fraction {dimensionless}
  ,                                       !- Design Minimum Zone Ventilation Efficiency {dimensionless}
  Coincident;                             !- Sizing Option

OS:ZoneHVAC:EquipmentList,
  {cf968954-351f-4f9f-b781-0deb6b59eb92}, !- Handle
  Zone HVAC Equipment List 1,             !- Name
  {1a8111e1-9490-41ae-bcb6-ab39ffc1bab3}, !- Thermal Zone
  ,                                       !- Load Distribution Scheme
  {092f7845-5fae-471c-96ac-f32ebfca5a88}, !- Zone Equipment 1
  1,                                      !- Zone Equipment Cooling Sequence 1
  1,                                      !- Zone Equipment Heating or No-Load Sequence 1
  {f5a72a3c-7ecc-4632-bccd-54fe8625ea5b}, !- Zone Equipment Sequential Cooling Fraction Schedule Name 1
  {553bbb69-8024-4e18-9872-ebbb07dec216}, !- Zone Equipment Sequential Heating Fraction Schedule Name 1
  {e1b59137-76e5-4058-8a7d-42086f737196}, !- Zone Equipment 2
  2,                                      !- Zone Equipment Cooling Sequence 2
  2,                                      !- Zone Equipment Heating or No-Load Sequence 2
  {cbef7b97-7267-4240-b649-d0925ade759a}, !- Zone Equipment Sequential Cooling Fraction Schedule Name 2
  {98d68b4c-d647-4e1c-970e-3851b735b0b5}; !- Zone Equipment Sequential Heating Fraction Schedule Name 2

OS:AdditionalProperties,
  {153bc729-42e4-4927-a6a1-9a8e897508fd}, !- Handle
  {1a8111e1-9490-41ae-bcb6-ab39ffc1bab3}, !- Object Name
  ObjectType,                             !- Feature Name 1
  String,                                 !- Feature Data Type 1
  conditioned space;                      !- Feature Value 1

OS:Space,
  {a6f607a9-49fa-43b4-9d8e-2bbd9d70ca1f}, !- Handle
  conditioned space 1,                    !- Name
  ,                                       !- Space Type Name
  ,                                       !- Default Construction Set Name
  ,                                       !- Default Schedule Set Name
  ,                                       !- Direction of Relative North {deg}
  ,                                       !- X Origin {m}
  ,                                       !- Y Origin {m}
  ,                                       !- Z Origin {m}
  ,                                       !- Building Story Name
  {1a8111e1-9490-41ae-bcb6-ab39ffc1bab3}, !- Thermal Zone Name
  ,                                       !- Part of Total Floor Area
  ,                                       !- Design Specification Outdoor Air Object Name
  ,                                       !- Building Unit Name
  692.06373070848;                        !- Volume {m3}

OS:Schedule:Ruleset,
  {29a6845f-0826-4e0a-b04b-c6b9bd40ef03}, !- Handle
  heating setpoint,                       !- Name
  {cab9f45c-aa33-4b41-8855-e5b9d313de5a}, !- Schedule Type Limits Name
  {b80dee6b-8638-4a0b-8f01-c24064122520}; !- Default Day Schedule Name

OS:Schedule:Day,
  {b80dee6b-8638-4a0b-8f01-c24064122520}, !- Handle
  heating setpoint default day,           !- Name
  {cab9f45c-aa33-4b41-8855-e5b9d313de5a}, !- Schedule Type Limits Name
  ,                                       !- Interpolate to Timestep
  24,                                     !- Hour 1
  0,                                      !- Minute 1
  0;                                      !- Value Until Time 1

OS:Schedule:Rule,
  {d8c4d8d5-9dbf-4d5e-b56a-c85e12bbf284}, !- Handle
  heating setpoint allday rule,           !- Name
  {29a6845f-0826-4e0a-b04b-c6b9bd40ef03}, !- Schedule Ruleset Name
  0,                                      !- Rule Order
  {ea413e6f-231e-4dcc-a4ea-a523874f2f0c}, !- Day Schedule Name
  Yes,                                    !- Apply Sunday
  Yes,                                    !- Apply Monday
  Yes,                                    !- Apply Tuesday
  Yes,                                    !- Apply Wednesday
  Yes,                                    !- Apply Thursday
  Yes,                                    !- Apply Friday
  Yes,                                    !- Apply Saturday
  DateRange,                              !- Date Specification Type
  1,                                      !- Start Month
  1,                                      !- Start Day
  12,                                     !- End Month
  31;                                     !- End Day

OS:Schedule:Day,
  {ea413e6f-231e-4dcc-a4ea-a523874f2f0c}, !- Handle
  heating setpoint day,                   !- Name
  {cab9f45c-aa33-4b41-8855-e5b9d313de5a}, !- Schedule Type Limits Name
  ,                                       !- Interpolate to Timestep
  24,                                     !- Hour 1
  0,                                      !- Minute 1
  20;                                     !- Value Until Time 1

OS:Schedule:Ruleset,
  {38b5243f-5e2a-4236-954e-e23febcdd94b}, !- Handle
  cooling setpoint,                       !- Name
  {cab9f45c-aa33-4b41-8855-e5b9d313de5a}, !- Schedule Type Limits Name
  {a981a18f-857e-4bb5-b7e6-795fce94f348}; !- Default Day Schedule Name

OS:Schedule:Day,
  {a981a18f-857e-4bb5-b7e6-795fce94f348}, !- Handle
  cooling setpoint default day,           !- Name
  {cab9f45c-aa33-4b41-8855-e5b9d313de5a}, !- Schedule Type Limits Name
  ,                                       !- Interpolate to Timestep
  24,                                     !- Hour 1
  0,                                      !- Minute 1
  0;                                      !- Value Until Time 1

OS:Schedule:Rule,
  {230ff021-dfa1-430e-9db8-c1829ba46f60}, !- Handle
  cooling setpoint allday rule,           !- Name
  {38b5243f-5e2a-4236-954e-e23febcdd94b}, !- Schedule Ruleset Name
  0,                                      !- Rule Order
  {f4bfe504-6103-4060-b9c9-8e954f5d6b4a}, !- Day Schedule Name
  Yes,                                    !- Apply Sunday
  Yes,                                    !- Apply Monday
  Yes,                                    !- Apply Tuesday
  Yes,                                    !- Apply Wednesday
  Yes,                                    !- Apply Thursday
  Yes,                                    !- Apply Friday
  Yes,                                    !- Apply Saturday
  DateRange,                              !- Date Specification Type
  1,                                      !- Start Month
  1,                                      !- Start Day
  12,                                     !- End Month
  31;                                     !- End Day

OS:Schedule:Day,
  {f4bfe504-6103-4060-b9c9-8e954f5d6b4a}, !- Handle
  cooling setpoint day,                   !- Name
  {cab9f45c-aa33-4b41-8855-e5b9d313de5a}, !- Schedule Type Limits Name
  ,                                       !- Interpolate to Timestep
  24,                                     !- Hour 1
  0,                                      !- Minute 1
  25.5555555555556;                       !- Value Until Time 1

OS:ThermostatSetpoint:DualSetpoint,
  {2a63d00c-2275-4d31-9224-5c1fa1271d38}, !- Handle
  conditioned space temperature setpoint, !- Name
  {29a6845f-0826-4e0a-b04b-c6b9bd40ef03}, !- Heating Setpoint Temperature Schedule Name
  {38b5243f-5e2a-4236-954e-e23febcdd94b}, !- Cooling Setpoint Temperature Schedule Name
  0;                                      !- Temperature Difference Between Cutout And Setpoint {deltaC}

OS:ScheduleTypeLimits,
  {cab9f45c-aa33-4b41-8855-e5b9d313de5a}, !- Handle
  Temperature,                            !- Name
  ,                                       !- Lower Limit Value
  ,                                       !- Upper Limit Value
  Continuous,                             !- Numeric Type
  Temperature;                            !- Unit Type

OS:Surface,
  {490292f7-94ad-471f-84db-74b8ed9f8c1b}, !- Handle
  Roof1,                                  !- Name
  RoofCeiling,                            !- Surface Type
  {b89a77b1-50dc-4431-b489-e66e1f627de4}, !- Construction Name
  {ca4cba07-3323-477f-a04e-630f1e063f04}, !- Space Name
  Outdoors,                               !- Outside Boundary Condition
  ,                                       !- Outside Boundary Condition Object
  SunExposed,                             !- Sun Exposure
  WindExposed,                            !- Wind Exposure
  ,                                       !- View Factor to Ground
  ,                                       !- Number of Vertices
  -26.9347048849634, 58.0557891618865, 2.4384, !- X,Y,Z Vertex 1 {m}
  -26.9347048849634, 46.7895631136661, 8.0715130241102, !- X,Y,Z Vertex 2 {m}
  -14.3386812381136, 46.7895631136661, 8.0715130241102, !- X,Y,Z Vertex 3 {m}
  -14.3386812381136, 58.0557891618865, 2.4384; !- X,Y,Z Vertex 4 {m}

OS:AdditionalProperties,
  {11c8f711-f4aa-4dcc-9a16-edb7b2f3354d}, !- Handle
  {490292f7-94ad-471f-84db-74b8ed9f8c1b}, !- Object Name
  Length,                                 !- Feature Name 1
  Double,                                 !- Feature Data Type 1
  41.325536899113608,                     !- Feature Value 1
  Width,                                  !- Feature Name 2
  Double,                                 !- Feature Data Type 2
  41.325536899113601,                     !- Feature Value 2
  Azimuth,                                !- Feature Name 3
  Integer,                                !- Feature Data Type 3
  0,                                      !- Feature Value 3
  Tilt,                                   !- Feature Name 4
  Double,                                 !- Feature Data Type 4
  0.5,                                    !- Feature Value 4
  SurfaceType,                            !- Feature Name 5
  String,                                 !- Feature Data Type 5
  Roof;                                   !- Feature Value 5

OS:ThermalZone,
  {33eb943a-81ea-442a-b989-87de67cdc66f}, !- Handle
  attic - vented,                         !- Name
  1,                                      !- Multiplier
  ,                                       !- Ceiling Height {m}
  356.389957095237,                       !- Volume {m3}
  ,                                       !- Floor Area {m2}
  ,                                       !- Zone Inside Convection Algorithm
  ,                                       !- Zone Outside Convection Algorithm
  ,                                       !- Zone Conditioning Equipment List Name
  {b7cb66ee-ee66-4a0b-80ab-d2300bef063c}, !- Zone Air Inlet Port List
  {592ec9b7-506a-45e6-a673-2319cc80140e}, !- Zone Air Exhaust Port List
  {efa37a06-ce43-498b-ba28-2daf5bb62c82}, !- Zone Air Node Name
  {8715faff-baf0-4a58-aa15-db9204c9aa06}, !- Zone Return Air Port List
  ,                                       !- Primary Daylighting Control Name
  ,                                       !- Fraction of Zone Controlled by Primary Daylighting Control
  ,                                       !- Secondary Daylighting Control Name
  ,                                       !- Fraction of Zone Controlled by Secondary Daylighting Control
  ,                                       !- Illuminance Map Name
  ,                                       !- Group Rendering Name
  ,                                       !- Thermostat Name
  No;                                     !- Use Ideal Air Loads

OS:Node,
  {da580806-83bb-4e75-9c13-be486aad6bae}, !- Handle
  Node 2,                                 !- Name
  {efa37a06-ce43-498b-ba28-2daf5bb62c82}, !- Inlet Port
  ;                                       !- Outlet Port

OS:Connection,
  {efa37a06-ce43-498b-ba28-2daf5bb62c82}, !- Handle
  {33eb943a-81ea-442a-b989-87de67cdc66f}, !- Source Object
  11,                                     !- Outlet Port
  {da580806-83bb-4e75-9c13-be486aad6bae}, !- Target Object
  2;                                      !- Inlet Port

OS:PortList,
  {b7cb66ee-ee66-4a0b-80ab-d2300bef063c}, !- Handle
  {33eb943a-81ea-442a-b989-87de67cdc66f}; !- HVAC Component

OS:PortList,
  {592ec9b7-506a-45e6-a673-2319cc80140e}, !- Handle
  {33eb943a-81ea-442a-b989-87de67cdc66f}; !- HVAC Component

OS:PortList,
  {8715faff-baf0-4a58-aa15-db9204c9aa06}, !- Handle
  {33eb943a-81ea-442a-b989-87de67cdc66f}; !- HVAC Component

OS:Sizing:Zone,
  {8db077af-02b5-4e73-8d21-1a17d254e275}, !- Handle
  {33eb943a-81ea-442a-b989-87de67cdc66f}, !- Zone or ZoneList Name
  SupplyAirTemperature,                   !- Zone Cooling Design Supply Air Temperature Input Method
  14,                                     !- Zone Cooling Design Supply Air Temperature {C}
  11.11,                                  !- Zone Cooling Design Supply Air Temperature Difference {deltaC}
  SupplyAirTemperature,                   !- Zone Heating Design Supply Air Temperature Input Method
  40,                                     !- Zone Heating Design Supply Air Temperature {C}
  11.11,                                  !- Zone Heating Design Supply Air Temperature Difference {deltaC}
  0.0085,                                 !- Zone Cooling Design Supply Air Humidity Ratio {kg-H2O/kg-air}
  0.008,                                  !- Zone Heating Design Supply Air Humidity Ratio {kg-H2O/kg-air}
  ,                                       !- Zone Heating Sizing Factor
  ,                                       !- Zone Cooling Sizing Factor
  DesignDay,                              !- Cooling Design Air Flow Method
  ,                                       !- Cooling Design Air Flow Rate {m3/s}
  ,                                       !- Cooling Minimum Air Flow per Zone Floor Area {m3/s-m2}
  ,                                       !- Cooling Minimum Air Flow {m3/s}
  ,                                       !- Cooling Minimum Air Flow Fraction
  DesignDay,                              !- Heating Design Air Flow Method
  ,                                       !- Heating Design Air Flow Rate {m3/s}
  ,                                       !- Heating Maximum Air Flow per Zone Floor Area {m3/s-m2}
  ,                                       !- Heating Maximum Air Flow {m3/s}
  ,                                       !- Heating Maximum Air Flow Fraction
  No,                                     !- Account for Dedicated Outdoor Air System
  NeutralSupplyAir,                       !- Dedicated Outdoor Air System Control Strategy
  autosize,                               !- Dedicated Outdoor Air Low Setpoint Temperature for Design {C}
  autosize,                               !- Dedicated Outdoor Air High Setpoint Temperature for Design {C}
  Sensible Load Only No Latent Load,      !- Zone Load Sizing Method
  HumidityRatioDifference,                !- Zone Latent Cooling Design Supply Air Humidity Ratio Input Method
  ,                                       !- Zone Dehumidification Design Supply Air Humidity Ratio {kgWater/kgDryAir}
  0.005,                                  !- Zone Cooling Design Supply Air Humidity Ratio Difference {kgWater/kgDryAir}
  HumidityRatioDifference,                !- Zone Latent Heating Design Supply Air Humidity Ratio Input Method
  ,                                       !- Zone Humidification Design Supply Air Humidity Ratio {kgWater/kgDryAir}
  0.005,                                  !- Zone Humidification Design Supply Air Humidity Ratio Difference {kgWater/kgDryAir}
  ,                                       !- Zone Humidistat Dehumidification Set Point Schedule Name
  ,                                       !- Zone Humidistat Humidification Set Point Schedule Name
  ,                                       !- Design Zone Air Distribution Effectiveness in Cooling Mode
  ,                                       !- Design Zone Air Distribution Effectiveness in Heating Mode
  ,                                       !- Design Zone Secondary Recirculation Fraction {dimensionless}
  ,                                       !- Design Minimum Zone Ventilation Efficiency {dimensionless}
  Coincident;                             !- Sizing Option

OS:ZoneHVAC:EquipmentList,
  {d05ea2d4-0974-43e3-aa61-38608c127e19}, !- Handle
  Zone HVAC Equipment List 2,             !- Name
  {33eb943a-81ea-442a-b989-87de67cdc66f}; !- Thermal Zone

OS:AdditionalProperties,
  {39a37a34-9918-45d5-9590-37d095d4ac1b}, !- Handle
  {33eb943a-81ea-442a-b989-87de67cdc66f}, !- Object Name
  ObjectType,                             !- Feature Name 1
  String,                                 !- Feature Data Type 1
  attic - vented;                         !- Feature Value 1

OS:Space,
  {ca4cba07-3323-477f-a04e-630f1e063f04}, !- Handle
  attic - vented 1,                       !- Name
  ,                                       !- Space Type Name
  ,                                       !- Default Construction Set Name
  ,                                       !- Default Schedule Set Name
  ,                                       !- Direction of Relative North {deg}
  ,                                       !- X Origin {m}
  ,                                       !- Y Origin {m}
  ,                                       !- Z Origin {m}
  ,                                       !- Building Story Name
  {33eb943a-81ea-442a-b989-87de67cdc66f}, !- Thermal Zone Name
  ,                                       !- Part of Total Floor Area
  ,                                       !- Design Specification Outdoor Air Object Name
  ,                                       !- Building Unit Name
  356.389957095237;                       !- Volume {m3}

OS:Material,
  {c01493eb-46fa-4ab0-bffe-c98238275a51}, !- Handle
  asphalt or fiberglass shingles,         !- Name