
OS:Version,
  {7769ca3e-61f5-490c-b199-2a647b29c74e}, !- Handle
  3.10.0;                                 !- Version Identifier

OS:SimulationControl,
  {fbd44c9f-8be4-43f5-a90a-51b039afc9a7}, !- Handle
  ,                                       !- Do Zone Sizing Calculation
  ,                                       !- Do System Sizing Calculation
  ,                                       !- Do Plant Sizing Calculation
  No;                                     !- Run Simulation for Sizing Periods

OS:Timestep,
  {e9a81639-b821-4ec5-be9d-6146e599f860}, !- Handle
  1;                                      !- Number of Timesteps per Hour

OS:ShadowCalculation,
  {43cde897-8eb3-4b74-8b4c-9b3de0f8aeed}, !- Handle
  PolygonClipping,                        !- Shading Calculation Method
  ,                                       !- Shading Calculation Update Frequency Method
  20,                                     !- Shading Calculation Update Frequency
  200,                                    !- Maximum Figures in Shadow Overlap Calculations
  ,                                       !- Polygon Clipping Algorithm
  512,                                    !- Pixel Counting Resolution
  ,                                       !- Sky Diffuse Modeling Algorithm
  No,                                     !- Output External Shading Calculation Results
  No,                                     !- Disable Self-Shading Within Shading Zone Groups
  No;                                     !- Disable Self-Shading From Shading Zone Groups to Other Zones

OS:SurfaceConvectionAlgorithm:Outside,
  {63bd8914-b611-4527-b3cc-e39cd42be911}, !- Handle
  DOE-2;                                  !- Algorithm

OS:SurfaceConvectionAlgorithm:Inside,
  {2d827139-5c21-4715-968a-7509463e893d}, !- Handle
  TARP;                                   !- Algorithm

OS:ZoneCapacitanceMultiplier:ResearchSpecial,
  {8d887a02-674b-4e49-b2ea-80c72f2b06e0}, !- Handle
  7,                                      !- Temperature Capacity Multiplier
  15,                                     !- Humidity Capacity Multiplier
  ;                                       !- Carbon Dioxide Capacity Multiplier

OS:ConvergenceLimits,
  {a28a4ce3-f4c1-4c39-959d-e7aca2f86ef9}, !- Handle
  0;                                      !- Minimum System Timestep {minutes}

OS:RunPeriod,
  {3413e3e2-fb12-400e-b88c-3eb02696c190}, !- Handle
  Run Period 1,                           !- Name
  1,                                      !- Begin Month
  1,                                      !- Begin Day of Month
  12,                                     !- End Month
  31,                                     !- End Day of Month
  ,                                       !- Use Weather File Holidays and Special Days
  ,                                       !- Use Weather File Daylight Saving Period
  ,                                       !- Apply Weekend Holiday Rule
  ,                                       !- Use Weather File Rain Indicators
  ,                                       !- Use Weather File Snow Indicators
  ;                                       !- Number of Times Runperiod to be Repeated

OS:PerformancePrecisionTradeoffs,
  {297ca2aa-826b-4aa3-ad05-7bfbe3f79a5a}, !- Handle
  ,                                       !- Use Coil Direct Solutions
  CarrollMRT;                             !- Zone Radiant Exchange Algorithm

OS:WeatherFile,
  {ed1f64b3-a1c7-400a-882b-b9467e79b169}, !- Handle
  Buffalo Niagara Intl Ap,                !- City
  NY,                                     !- State Province Region
  USA,                                    !- Country
  TMY3,                                   !- Data Source
  725280,                                 !- WMO Number
  42.93,                                  !- Latitude {deg}
  -78.73,                                 !- Longitude {deg}
  -5,                                     !- Time Zone {hr}
  215,                                    !- Elevation {m}
  /Users/nmoore/github/urbanopt-example-geojson-project/example_project/weather/USA_NY_Buffalo-Greater.Buffalo.Intl.AP.725280_TMY3.epw, !- Url
  6B50E0FF,                               !- Checksum
  ,                                       !- Start Date Actual Year
  Sunday;                                 !- Start Day of Week

OS:YearDescription,
  {742df4e2-bcc7-4dfe-8927-b14e6dd8ba26}, !- Handle
  2007,                                   !- Calendar Year
  ,                                       !- Day of Week for Start Day
  ;                                       !- Is Leap Year

OS:Site,
  {7620f331-396c-4a31-bd6e-4f7615858056}, !- Handle
  Buffalo Niagara Intl Ap_NY,             !- Name
  42.93,                                  !- Latitude {deg}
  -78.73,                                 !- Longitude {deg}
  -5,                                     !- Time Zone {hr}
  215,                                    !- Elevation {m}
  Suburbs,                                !- Terrain
  Yes;                                    !- Keep Site Location Information

OS:RunPeriodControl:DaylightSavingTime,
  {95c65060-8365-420c-9037-e2cdf633ee0c}, !- Handle
  Mar 12,                                 !- Start Date
  Nov 5;                                  !- End Date

OS:Site:GroundTemperature:Shallow,
  {55d294c3-074e-4edf-a090-6fab9fe734d6}, !- Handle
  4.30207395723828,                       !- January Surface Ground Temperature {C}
  2.29327249652502,                       !- February Surface Ground Temperature {C}
  2.13240047156047,                       !- March Surface Ground Temperature {C}
  3.08567940719286,                       !- April Surface Ground Temperature {C}
  6.91256312497526,                       !- May Surface Ground Temperature {C}
  10.7216195949507,                       !- June Surface Ground Temperature {C}
  14.0238679822574,                       !- July Surface Ground Temperature {C}
  16.1157611184724,                       !- August Surface Ground Temperature {C}
  16.2934789303462,                       !- September Surface Ground Temperature {C}
  14.5920754632847,                       !- October Surface Ground Temperature {C}
  11.374036348653,                        !- November Surface Ground Temperature {C}
  7.68182621661674;                       !- December Surface Ground Temperature {C}

OS:ThermalZone,
  {ea6758df-9139-41e1-9fc2-c5d1fdea998f}, !- Handle
  conditioned space,                      !- Name
  1,                                      !- Multiplier
  ,                                       !- Ceiling Height {m}
  692.06373070848,                        !- Volume {m3}
  ,                                       !- Floor Area {m2}
  ,                                       !- Zone Inside Convection Algorithm
  ,                                       !- Zone Outside Convection Algorithm
  ,                                       !- Zone Conditioning Equipment List Name
  {d343fd50-99d2-43c0-aac4-c80ba70e69b4}, !- Zone Air Inlet Port List
  {1d58ee67-b0a4-42ce-880d-11fe60ba0496}, !- Zone Air Exhaust Port List
  {4e2b4bef-5b4e-4454-aff4-a875e2ef9015}, !- Zone Air Node Name
  {1aea1764-2358-4e15-8c00-f65b0ed7f110}, !- Zone Return Air Port List
  ,                                       !- Primary Daylighting Control Name
  ,                                       !- Fraction of Zone Controlled by Primary Daylighting Control
  ,                                       !- Secondary Daylighting Control Name
  ,                                       !- Fraction of Zone Controlled by Secondary Daylighting Control
  ,                                       !- Illuminance Map Name
  ,                                       !- Group Rendering Name
  {2f8a1b23-f446-4539-b7e0-e4e7a792407f}, !- Thermostat Name
  No;                                     !- Use Ideal Air Loads

OS:Node,
  {782db9ff-baf4-4337-9e1f-1f7745134948}, !- Handle
  Node 1,                                 !- Name
  {4e2b4bef-5b4e-4454-aff4-a875e2ef9015}, !- Inlet Port
  ;                                       !- Outlet Port

OS:Connection,
  {4e2b4bef-5b4e-4454-aff4-a875e2ef9015}, !- Handle
  {ea6758df-9139-41e1-9fc2-c5d1fdea998f}, !- Source Object
  11,                                     !- Outlet Port
  {782db9ff-baf4-4337-9e1f-1f7745134948}, !- Target Object
  2;                                      !- Inlet Port

OS:PortList,
  {d343fd50-99d2-43c0-aac4-c80ba70e69b4}, !- Handle
  {ea6758df-9139-41e1-9fc2-c5d1fdea998f}, !- HVAC Component
  {aafe691a-8083-4913-8493-1565c3513047}; !- Port 1

OS:PortList,
  {1d58ee67-b0a4-42ce-880d-11fe60ba0496}, !- Handle
  {ea6758df-9139-41e1-9fc2-c5d1fdea998f}; !- HVAC Component

OS:PortList,
  {1aea1764-2358-4e15-8c00-f65b0ed7f110}, !- Handle
  {ea6758df-9139-41e1-9fc2-c5d1fdea998f}, !- HVAC Component
  {d25606a6-2574-4288-a061-b00e7ed5c299}; !- Port 1

OS:Sizing:Zone,
  {d55be036-077d-4c4f-a3e3-540b3adb526b}, !- Handle
  {ea6758df-9139-41e1-9fc2-c5d1fdea998f}, !- Zone or ZoneList Name
  SupplyAirTemperature,                   !- Zone Cooling Design Supply Air Temperature Input Method
  14,                                     !- Zone Cooling Design Supply Air Temperature {C}
  11.11,                                  !- Zone Cooling Design Supply Air Temperature Difference {deltaC}
  SupplyAirTemperature,                   !- Zone Heating Design Supply Air Temperature Input Method
  40,                                     !- Zone Heating Design Supply Air Temperature {C}
  11.11,                                  !- Zone Heating Design Supply Air Temperature Difference {deltaC}
  0.0085,                                 !- Zone Cooling Design Supply Air Humidity Ratio {kg-H2O/kg-air}
  0.008,                                  !- Zone Heating Design Supply Air Humidity Ratio {kg-H2O/kg-air}
  ,                                       !- Zone Heating Sizing Factor
  ,                                       !- Zone Cooling Sizing Factor
  DesignDay,                              !- Cooling Design Air Flow Method
  ,                                       !- Cooling Design Air Flow Rate {m3/s}
  ,                                       !- Cooling Minimum Air Flow per Zone Floor Area {m3/s-m2}
  ,                                       !- Cooling Minimum Air Flow {m3/s}
  ,                                       !- Cooling Minimum Air Flow Fraction
  DesignDay,                              !- Heating Design Air Flow Method
  ,                                       !- Heating Design Air Flow Rate {m3/s}
  ,                                       !- Heating Maximum Air Flow per Zone Floor Area {m3/s-m2}
  ,                                       !- Heating Maximum Air Flow {m3/s}
  ,                                       !- Heating Maximum Air Flow Fraction
  No,                                     !- Account for Dedicated Outdoor Air System
  NeutralSupplyAir,                       !- Dedicated Outdoor Air System Control Strategy
  autosize,                               !- Dedicated Outdoor Air Low Setpoint Temperature for Design {C}
  autosize,                               !- Dedicated Outdoor Air High Setpoint Temperature for Design {C}
  Sensible Load Only No Latent Load,      !- Zone Load Sizing Method
  HumidityRatioDifference,                !- Zone Latent Cooling Design Supply Air Humidity Ratio Input Method
  ,                                       !- Zone Dehumidification Design Supply Air Humidity Ratio {kgWater/kgDryAir}
  0.005,                                  !- Zone Cooling Design Supply Air Humidity Ratio Difference {kgWater/kgDryAir}
  HumidityRatioDifference,                !- Zone Latent Heating Design Supply Air Humidity Ratio Input Method
  ,                                       !- Zone Humidification Design Supply Air Humidity Ratio {kgWater/kgDryAir}
  0.005,                                  !- Zone Humidification Design Supply Air Humidity Ratio Difference {kgWater/kgDryAir}
  ,                                       !- Zone Humidistat Dehumidification Set Point Schedule Name
  ,                                       !- Zone Humidistat Humidification Set Point Schedule Name
  ,                                       !- Design Zone Air Distribution Effectiveness in Cooling Mode
  ,                                       !- Design Zone Air Distribution Effectiveness in Heating Mode
  ,                                       !- Design Zone Secondary Recirculation Fraction {dimensionless}
  ,                                       !- Design Minimum Zone Ventilation Efficiency {dimensionless}
  Coincident;                             !- Sizing Option

OS:ZoneHVAC:EquipmentList,
  {f0e1f4af-db27-4980-9d9d-892212ada19f}, !- Handle
  Zone HVAC Equipment List 1,             !- Name
  {ea6758df-9139-41e1-9fc2-c5d1fdea998f}, !- Thermal Zone
  ,                                       !- Load Distribution Scheme
  {81b0107d-cd21-4155-8ba3-ed6a03fbff5d}, !- Zone Equipment 1
  1,                                      !- Zone Equipment Cooling Sequence 1
  1,                                      !- Zone Equipment Heating or No-Load Sequence 1
  {0b80d018-5961-412f-978a-f1431e6c2c37}, !- Zone Equipment Sequential Cooling Fraction Schedule Name 1
  {d39ce80d-1f51-4a1c-b7c9-8b35b2d956a4}, !- Zone Equipment Sequential Heating Fraction Schedule Name 1
  {ed92a72e-b447-4abb-9f20-2c4dfa0a85a5}, !- Zone Equipment 2
  2,                                      !- Zone Equipment Cooling Sequence 2
  2,                                      !- Zone Equipment Heating or No-Load Sequence 2
  {67464fc5-90f9-4973-847f-48cff959a257}, !- Zone Equipment Sequential Cooling Fraction Schedule Name 2
  {8ef8df42-e796-454a-aa47-13bea3e8dd53}; !- Zone Equipment Sequential Heating Fraction Schedule Name 2

OS:AdditionalProperties,
  {d724a0d7-a295-41e2-9be8-fd57cd602f7b}, !- Handle
  {ea6758df-9139-41e1-9fc2-c5d1fdea998f}, !- Object Name
  ObjectType,                             !- Feature Name 1
  String,                                 !- Feature Data Type 1
  conditioned space;                      !- Feature Value 1

OS:Space,
  {72e07f01-927c-41fa-8173-fb82297dc3cf}, !- Handle
  conditioned space 1,                    !- Name
  ,                                       !- Space Type Name
  ,                                       !- Default Construction Set Name
  ,                                       !- Default Schedule Set Name
  ,                                       !- Direction of Relative North {deg}
  ,                                       !- X Origin {m}
  ,                                       !- Y Origin {m}
  ,                                       !- Z Origin {m}
  ,                                       !- Building Story Name
  {ea6758df-9139-41e1-9fc2-c5d1fdea998f}, !- Thermal Zone Name
  ,                                       !- Part of Total Floor Area
  ,                                       !- Design Specification Outdoor Air Object Name
  ,                                       !- Building Unit Name
  692.06373070848;                        !- Volume {m3}

OS:Schedule:Ruleset,
  {b435d2de-7730-4165-8ddd-0dc116c9260c}, !- Handle
  heating setpoint,                       !- Name
  {7717a9b3-22f0-4d68-8642-7d4c9f569419}, !- Schedule Type Limits Name
  {f06d500d-c9c5-4260-9062-3030a3f64271}; !- Default Day Schedule Name

OS:Schedule:Day,
  {f06d500d-c9c5-4260-9062-3030a3f64271}, !- Handle
  heating setpoint default day,           !- Name
  {7717a9b3-22f0-4d68-8642-7d4c9f569419}, !- Schedule Type Limits Name
  ,                                       !- Interpolate to Timestep
  24,                                     !- Hour 1
  0,                                      !- Minute 1
  0;                                      !- Value Until Time 1

OS:Schedule:Rule,
  {1580a9ed-3109-4ff5-8a61-1ce35dd0970e}, !- Handle
  heating setpoint allday rule,           !- Name
  {b435d2de-7730-4165-8ddd-0dc116c9260c}, !- Schedule Ruleset Name
  0,                                      !- Rule Order
  {055602fa-bdcd-4f8a-98d1-341f2d6efd6b}, !- Day Schedule Name
  Yes,                                    !- Apply Sunday
  Yes,                                    !- Apply Monday
  Yes,                                    !- Apply Tuesday
  Yes,                                    !- Apply Wednesday
  Yes,                                    !- Apply Thursday
  Yes,                                    !- Apply Friday
  Yes,                                    !- Apply Saturday
  DateRange,                              !- Date Specification Type
  1,                                      !- Start Month
  1,                                      !- Start Day
  12,                                     !- End Month
  31;                                     !- End Day

OS:Schedule:Day,
  {055602fa-bdcd-4f8a-98d1-341f2d6efd6b}, !- Handle
  heating setpoint day,                   !- Name
  {7717a9b3-22f0-4d68-8642-7d4c9f569419}, !- Schedule Type Limits Name
  ,                                       !- Interpolate to Timestep
  24,                                     !- Hour 1
  0,                                      !- Minute 1
  20;                                     !- Value Until Time 1

OS:Schedule:Ruleset,
  {b39a6ed6-8c31-4333-8830-471bda4c9cb6}, !- Handle
  cooling setpoint,                       !- Name
  {7717a9b3-22f0-4d68-8642-7d4c9f569419}, !- Schedule Type Limits Name
  {092e0337-f3ed-4456-bb7e-f5eb9fd1f646}; !- Default Day Schedule Name

OS:Schedule:Day,
  {092e0337-f3ed-4456-bb7e-f5eb9fd1f646}, !- Handle
  cooling setpoint default day,           !- Name
  {7717a9b3-22f0-4d68-8642-7d4c9f569419}, !- Schedule Type Limits Name
  ,                                       !- Interpolate to Timestep
  24,                                     !- Hour 1
  0,                                      !- Minute 1
  0;                                      !- Value Until Time 1

OS:Schedule:Rule,
  {923926de-198f-4b5b-ac86-a5ed18ed2cc0}, !- Handle
  cooling setpoint allday rule,           !- Name
  {b39a6ed6-8c31-4333-8830-471bda4c9cb6}, !- Schedule Ruleset Name
  0,                                      !- Rule Order
  {6d2d96f1-1c0e-443e-91af-e946d652c759}, !- Day Schedule Name
  Yes,                                    !- Apply Sunday
  Yes,                                    !- Apply Monday
  Yes,                                    !- Apply Tuesday
  Yes,                                    !- Apply Wednesday
  Yes,                                    !- Apply Thursday
  Yes,                                    !- Apply Friday
  Yes,                                    !- Apply Saturday
  DateRange,                              !- Date Specification Type
  1,                                      !- Start Month
  1,                                      !- Start Day
  12,                                     !- End Month
  31;                                     !- End Day

OS:Schedule:Day,
  {6d2d96f1-1c0e-443e-91af-e946d652c759}, !- Handle
  cooling setpoint day,                   !- Name
  {7717a9b3-22f0-4d68-8642-7d4c9f569419}, !- Schedule Type Limits Name
  ,                                       !- Interpolate to Timestep
  24,                                     !- Hour 1
  0,                                      !- Minute 1
  25.5555555555556;                       !- Value Until Time 1

OS:ThermostatSetpoint:DualSetpoint,
  {2f8a1b23-f446-4539-b7e0-e4e7a792407f}, !- Handle
  conditioned space temperature setpoint, !- Name
  {b435d2de-7730-4165-8ddd-0dc116c9260c}, !- Heating Setpoint Temperature Schedule Name
  {b39a6ed6-8c31-4333-8830-471bda4c9cb6}, !- Cooling Setpoint Temperature Schedule Name
  0;                                      !- Temperature Difference Between Cutout And Setpoint {deltaC}

OS:ScheduleTypeLimits,
  {7717a9b3-22f0-4d68-8642-7d4c9f569419}, !- Handle
  Temperature,                            !- Name
  ,                                       !- Lower Limit Value
  ,                                       !- Upper Limit Value
  Continuous,                             !- Numeric Type
  Temperature;                            !- Unit Type

OS:Surface,
  {5572facf-ba53-43cb-8b18-37d10027c938}, !- Handle
  Roof1,                                  !- Name
  RoofCeiling,                            !- Surface Type
  {86ae2207-c7fe-45e8-b585-570b0d807e88}, !- Construction Name
  {a3527598-eb2e-40db-98f2-aae1e1788df1}, !- Space Name
  Outdoors,                               !- Outside Boundary Condition
  ,                                       !- Outside Boundary Condition Object
  SunExposed,                             !- Sun Exposure
  WindExposed,                            !- Wind Exposure
  ,                                       !- View Factor to Ground
  ,                                       !- Number of Vertices
  -26.9347048849634, 58.0557891618865, 2.4384, !- X,Y,Z Vertex 1 {m}
  -26.9347048849634, 46.7895631136661, 8.0715130241102, !- X,Y,Z Vertex 2 {m}
  -14.3386812381136, 46.7895631136661, 8.0715130241102, !- X,Y,Z Vertex 3 {m}
  -14.3386812381136, 58.0557891618865, 2.4384; !- X,Y,Z Vertex 4 {m}

OS:AdditionalProperties,
  {7c8d0164-be41-4566-8f74-e40d26666073}, !- Handle
  {5572facf-ba53-43cb-8b18-37d10027c938}, !- Object Name
  Length,                                 !- Feature Name 1
  Double,                                 !- Feature Data Type 1
  41.325536899113608,                     !- Feature Value 1
  Width,                                  !- Feature Name 2
  Double,                                 !- Feature Data Type 2
  41.325536899113601,                     !- Feature Value 2
  Azimuth,                                !- Feature Name 3
  Integer,                                !- Feature Data Type 3
  0,                                      !- Feature Value 3
  Tilt,                                   !- Feature Name 4
  Double,                                 !- Feature Data Type 4
  0.5,                                    !- Feature Value 4
  SurfaceType,                            !- Feature Name 5
  String,                                 !- Feature Data Type 5
  Roof;                                   !- Feature Value 5

OS:ThermalZone,
  {66b32125-f815-4c71-9827-e666257daa29}, !- Handle
  attic - vented,                         !- Name
  1,                                      !- Multiplier
  ,                                       !- Ceiling Height {m}
  356.390921899745,                       !- Volume {m3}
  ,                                       !- Floor Area {m2}
  ,                                       !- Zone Inside Convection Algorithm
  ,                                       !- Zone Outside Convection Algorithm
  ,                                       !- Zone Conditioning Equipment List Name
  {37dd0529-74ac-45d1-8543-36c7ca683ca2}, !- Zone Air Inlet Port List
  {ca7c893a-2a0a-4bab-aa93-2e6dd4c27693}, !- Zone Air Exhaust Port List
  {e9716f32-29d9-4959-94a9-0a7694752dda}, !- Zone Air Node Name
  {4f211eb2-8212-409b-bae8-502c903ffe94}, !- Zone Return Air Port List
  ,                                       !- Primary Daylighting Control Name
  ,                                       !- Fraction of Zone Controlled by Primary Daylighting Control
  ,                                       !- Secondary Daylighting Control Name
  ,                                       !- Fraction of Zone Controlled by Secondary Daylighting Control
  ,                                       !- Illuminance Map Name
  ,                                       !- Group Rendering Name
  ,                                       !- Thermostat Name
  No;                                     !- Use Ideal Air Loads

OS:Node,
  {80beca83-8e69-4983-a618-9039fa15935b}, !- Handle
  Node 2,                                 !- Name
  {e9716f32-29d9-4959-94a9-0a7694752dda}, !- Inlet Port
  ;                                       !- Outlet Port

OS:Connection,
  {e9716f32-29d9-4959-94a9-0a7694752dda}, !- Handle
  {66b32125-f815-4c71-9827-e666257daa29}, !- Source Object
  11,                                     !- Outlet Port
  {80beca83-8e69-4983-a618-9039fa15935b}, !- Target Object
  2;                                      !- Inlet Port

OS:PortList,
  {37dd0529-74ac-45d1-8543-36c7ca683ca2}, !- Handle
  {66b32125-f815-4c71-9827-e666257daa29}; !- HVAC Component

OS:PortList,
  {ca7c893a-2a0a-4bab-aa93-2e6dd4c27693}, !- Handle
  {66b32125-f815-4c71-9827-e666257daa29}; !- HVAC Component

OS:PortList,
  {4f211eb2-8212-409b-bae8-502c903ffe94}, !- Handle
  {66b32125-f815-4c71-9827-e666257daa29}; !- HVAC Component

OS:Sizing:Zone,
  {9d96ae4d-d82f-4363-b9bf-61d099a60697}, !- Handle
  {66b32125-f815-4c71-9827-e666257daa29}, !- Zone or ZoneList Name
  SupplyAirTemperature,                   !- Zone Cooling Design Supply Air Temperature Input Method
  14,                                     !- Zone Cooling Design Supply Air Temperature {C}
  11.11,                                  !- Zone Cooling Design Supply Air Temperature Difference {deltaC}
  SupplyAirTemperature,                   !- Zone Heating Design Supply Air Temperature Input Method
  40,                                     !- Zone Heating Design Supply Air Temperature {C}
  11.11,                                  !- Zone Heating Design Supply Air Temperature Difference {deltaC}
  0.0085,                                 !- Zone Cooling Design Supply Air Humidity Ratio {kg-H2O/kg-air}
  0.008,                                  !- Zone Heating Design Supply Air Humidity Ratio {kg-H2O/kg-air}
  ,                                       !- Zone Heating Sizing Factor
  ,                                       !- Zone Cooling Sizing Factor
  DesignDay,                              !- Cooling Design Air Flow Method
  ,                                       !- Cooling Design Air Flow Rate {m3/s}
  ,                                       !- Cooling Minimum Air Flow per Zone Floor Area {m3/s-m2}
  ,                                       !- Cooling Minimum Air Flow {m3/s}
  ,                                       !- Cooling Minimum Air Flow Fraction
  DesignDay,                              !- Heating Design Air Flow Method
  ,                                       !- Heating Design Air Flow Rate {m3/s}
  ,                                       !- Heating Maximum Air Flow per Zone Floor Area {m3/s-m2}
  ,                                       !- Heating Maximum Air Flow {m3/s}
  ,                                       !- Heating Maximum Air Flow Fraction
  No,                                     !- Account for Dedicated Outdoor Air System
  NeutralSupplyAir,                       !- Dedicated Outdoor Air System Control Strategy
  autosize,                               !- Dedicated Outdoor Air Low Setpoint Temperature for Design {C}
  autosize,                               !- Dedicated Outdoor Air High Setpoint Temperature for Design {C}
  Sensible Load Only No Latent Load,      !- Zone Load Sizing Method
  HumidityRatioDifference,                !- Zone Latent Cooling Design Supply Air Humidity Ratio Input Method
  ,                                       !- Zone Dehumidification Design Supply Air Humidity Ratio {kgWater/kgDryAir}
  0.005,                                  !- Zone Cooling Design Supply Air Humidity Ratio Difference {kgWater/kgDryAir}
  HumidityRatioDifference,                !- Zone Latent Heating Design Supply Air Humidity Ratio Input Method
  ,                                       !- Zone Humidification Design Supply Air Humidity Ratio {kgWater/kgDryAir}
  0.005,                                  !- Zone Humidification Design Supply Air Humidity Ratio Difference {kgWater/kgDryAir}
  ,                                       !- Zone Humidistat Dehumidification Set Point Schedule Name
  ,                                       !- Zone Humidistat Humidification Set Point Schedule Name
  ,                                       !- Design Zone Air Distribution Effectiveness in Cooling Mode
  ,                                       !- Design Zone Air Distribution Effectiveness in Heating Mode
  ,                                       !- Design Zone Secondary Recirculation Fraction {dimensionless}
  ,                                       !- Design Minimum Zone Ventilation Efficiency {dimensionless}
  Coincident;                             !- Sizing Option

OS:ZoneHVAC:EquipmentList,
  {8fc6f713-8d02-4f0d-84c1-df820b79f709}, !- Handle
  Zone HVAC Equipment List 2,             !- Name
  {66b32125-f815-4c71-9827-e666257daa29}; !- Thermal Zone

OS:AdditionalProperties,
  {add94710-2bb1-4713-9b85-25ea37aaf6c7}, !- Handle
  {66b32125-f815-4c71-9827-e666257daa29}, !- Object Name
  ObjectType,                             !- Feature Name 1
  String,                                 !- Feature Data Type 1
  attic - vented;                         !- Feature Value 1

OS:Space,
  {a3527598-eb2e-40db-98f2-aae1e1788df1}, !- Handle
  attic - vented 1,                       !- Name
  ,                                       !- Space Type Name
  ,                                       !- Default Construction Set Name
  ,                                       !- Default Schedule Set Name
  ,                                       !- Direction of Relative North {deg}
  ,                                       !- X Origin {m}
  ,                                       !- Y Origin {m}
  ,                                       !- Z Origin {m}
  ,                                       !- Building Story Name
  {66b32125-f815-4c71-9827-e666257daa29}, !- Thermal Zone Name
  ,                                       !- Part of Total Floor Area
  ,                                       !- Design Specification Outdoor Air Object Name
  ,                                       !- Building Unit Name
  356.390921899745;                       !- Volume {m3}

OS:Material,
  {f5a95375-e753-4482-82cb-709e2670b95a}, !- Handle
  asphalt or fiberglass shingles,         !- Name