
OS:Version,
  {371f4df9-2c2e-4dd8-b4d9-7e9e5d1b32bd}, !- Handle
  3.10.0;                                 !- Version Identifier

OS:SimulationControl,
  {c75cda40-4196-41a6-bcb5-8bdb00b19941}, !- Handle
  ,                                       !- Do Zone Sizing Calculation
  ,                                       !- Do System Sizing Calculation
  ,                                       !- Do Plant Sizing Calculation
  No;                                     !- Run Simulation for Sizing Periods

OS:Timestep,
  {32aa8017-af71-461f-b37d-697724fb988a}, !- Handle
  1;                                      !- Number of Timesteps per Hour

OS:ShadowCalculation,
  {5f9d1844-c757-4dd8-ba74-002da9287292}, !- Handle
  PolygonClipping,                        !- Shading Calculation Method
  ,                                       !- Shading Calculation Update Frequency Method
  20,                                     !- Shading Calculation Update Frequency
  200,                                    !- Maximum Figures in Shadow Overlap Calculations
  ,                                       !- Polygon Clipping Algorithm
  512,                                    !- Pixel Counting Resolution
  ,                                       !- Sky Diffuse Modeling Algorithm
  No,                                     !- Output External Shading Calculation Results
  No,                                     !- Disable Self-Shading Within Shading Zone Groups
  No;                                     !- Disable Self-Shading From Shading Zone Groups to Other Zones

OS:SurfaceConvectionAlgorithm:Outside,
  {0ebc92bb-5307-4cf0-b946-daa3f41778a6}, !- Handle
  DOE-2;                                  !- Algorithm

OS:SurfaceConvectionAlgorithm:Inside,
  {6601c3be-89e4-44f0-856b-e5bac3705b35}, !- Handle
  TARP;                                   !- Algorithm

OS:ZoneCapacitanceMultiplier:ResearchSpecial,
  {1ff947c4-4ff6-4c2f-849e-dbe34498c3de}, !- Handle
  7,                                      !- Temperature Capacity Multiplier
  15,                                     !- Humidity Capacity Multiplier
  ;                                       !- Carbon Dioxide Capacity Multiplier

OS:ConvergenceLimits,
  {977df601-58d9-4ba7-9681-ed8dd8003398}, !- Handle
  0;                                      !- Minimum System Timestep {minutes}

OS:RunPeriod,
  {b5c7a6d3-d46d-4001-9f2d-16a7f6975ecb}, !- Handle
  Run Period 1,                           !- Name
  1,                                      !- Begin Month
  1,                                      !- Begin Day of Month
  12,                                     !- End Month
  31,                                     !- End Day of Month
  ,                                       !- Use Weather File Holidays and Special Days
  ,                                       !- Use Weather File Daylight Saving Period
  ,                                       !- Apply Weekend Holiday Rule
  ,                                       !- Use Weather File Rain Indicators
  ,                                       !- Use Weather File Snow Indicators
  ;                                       !- Number of Times Runperiod to be Repeated

OS:PerformancePrecisionTradeoffs,
  {c75a55a1-b37a-4223-9e4c-fc2a8158a62f}, !- Handle
  ,                                       !- Use Coil Direct Solutions
  CarrollMRT;                             !- Zone Radiant Exchange Algorithm

OS:WeatherFile,
  {6f37c5e9-33f1-4aeb-8a4b-f06e2e338268}, !- Handle
  Buffalo Niagara Intl Ap,                !- City
  NY,                                     !- State Province Region
  USA,                                    !- Country
  TMY3,                                   !- Data Source
  725280,                                 !- WMO Number
  42.93,                                  !- Latitude {deg}
  -78.73,                                 !- Longitude {deg}
  -5,                                     !- Time Zone {hr}
  215,                                    !- Elevation {m}
  /Users/nmoore/github/urbanopt-example-geojson-project/example_project/weather/USA_NY_Buffalo-Greater.Buffalo.Intl.AP.725280_TMY3.epw, !- Url
  6B50E0FF,                               !- Checksum
  ,                                       !- Start Date Actual Year
  Sunday;                                 !- Start Day of Week

OS:YearDescription,
  {0e8c3a21-5607-4533-9cc4-eff32f5f9750}, !- Handle
  2007,                                   !- Calendar Year
  ,                                       !- Day of Week for Start Day
  ;                                       !- Is Leap Year

OS:Site,
  {e7550f2d-7b82-4ae5-9565-7c5bfd3a9df5}, !- Handle
  Buffalo Niagara Intl Ap_NY,             !- Name
  42.93,                                  !- Latitude {deg}
  -78.73,                                 !- Longitude {deg}
  -5,                                     !- Time Zone {hr}
  215,                                    !- Elevation {m}
  Suburbs,                                !- Terrain
  Yes;                                    !- Keep Site Location Information

OS:RunPeriodControl:DaylightSavingTime,
  {845eebfa-c27a-476e-86e6-ad89959b8c96}, !- Handle
  Mar 12,                                 !- Start Date
  Nov 5;                                  !- End Date

OS:Site:GroundTemperature:Shallow,
  {6a1f88c8-96da-4206-8687-603ddff6b4bb}, !- Handle
  4.30207395723828,                       !- January Surface Ground Temperature {C}
  2.29327249652502,                       !- February Surface Ground Temperature {C}
  2.13240047156047,                       !- March Surface Ground Temperature {C}
  3.08567940719286,                       !- April Surface Ground Temperature {C}
  6.91256312497526,                       !- May Surface Ground Temperature {C}
  10.7216195949507,                       !- June Surface Ground Temperature {C}
  14.0238679822574,                       !- July Surface Ground Temperature {C}
  16.1157611184724,                       !- August Surface Ground Temperature {C}
  16.2934789303462,                       !- September Surface Ground Temperature {C}
  14.5920754632847,                       !- October Surface Ground Temperature {C}
  11.374036348653,                        !- November Surface Ground Temperature {C}
  7.68182621661674;                       !- December Surface Ground Temperature {C}

OS:ThermalZone,
  {996c1530-c777-4ce4-ae15-d91906f25e9c}, !- Handle
  conditioned space,                      !- Name
  1,                                      !- Multiplier
  ,                                       !- Ceiling Height {m}
  692.06373070848,                        !- Volume {m3}
  ,                                       !- Floor Area {m2}
  ,                                       !- Zone Inside Convection Algorithm
  ,                                       !- Zone Outside Convection Algorithm
  ,                                       !- Zone Conditioning Equipment List Name
  {30e64e00-3bdb-4960-aa9c-dbb468697b38}, !- Zone Air Inlet Port List
  {6ea5ceeb-5104-42f7-848e-021fbfd50db7}, !- Zone Air Exhaust Port List
  {e1bcaabc-0c68-4219-b644-3ea26fad8bad}, !- Zone Air Node Name
  {4a6504e8-94c7-4993-b166-560f44b204d9}, !- Zone Return Air Port List
  ,                                       !- Primary Daylighting Control Name
  ,                                       !- Fraction of Zone Controlled by Primary Daylighting Control
  ,                                       !- Secondary Daylighting Control Name
  ,                                       !- Fraction of Zone Controlled by Secondary Daylighting Control
  ,                                       !- Illuminance Map Name
  ,                                       !- Group Rendering Name
  {16ccc196-59cd-4aa7-8109-bbc4aff7dad2}, !- Thermostat Name
  No;                                     !- Use Ideal Air Loads

OS:Node,
  {8528c377-3f09-4b17-a575-33b25f13bf1e}, !- Handle
  Node 1,                                 !- Name
  {e1bcaabc-0c68-4219-b644-3ea26fad8bad}, !- Inlet Port
  ;                                       !- Outlet Port

OS:Connection,
  {e1bcaabc-0c68-4219-b644-3ea26fad8bad}, !- Handle
  {996c1530-c777-4ce4-ae15-d91906f25e9c}, !- Source Object
  11,                                     !- Outlet Port
  {8528c377-3f09-4b17-a575-33b25f13bf1e}, !- Target Object
  2;                                      !- Inlet Port

OS:PortList,
  {30e64e00-3bdb-4960-aa9c-dbb468697b38}, !- Handle
  {996c1530-c777-4ce4-ae15-d91906f25e9c}, !- HVAC Component
  {04829b0a-c83c-4995-83e4-15a01579c3ec}; !- Port 1

OS:PortList,
  {6ea5ceeb-5104-42f7-848e-021fbfd50db7}, !- Handle
  {996c1530-c777-4ce4-ae15-d91906f25e9c}; !- HVAC Component

OS:PortList,
  {4a6504e8-94c7-4993-b166-560f44b204d9}, !- Handle
  {996c1530-c777-4ce4-ae15-d91906f25e9c}, !- HVAC Component
  {51b0e075-b043-4875-956a-26806e4b0915}; !- Port 1

OS:Sizing:Zone,
  {529f87c4-0662-43b2-a0e7-1b184da5b1f8}, !- Handle
  {996c1530-c777-4ce4-ae15-d91906f25e9c}, !- Zone or ZoneList Name
  SupplyAirTemperature,                   !- Zone Cooling Design Supply Air Temperature Input Method
  14,                                     !- Zone Cooling Design Supply Air Temperature {C}
  11.11,                                  !- Zone Cooling Design Supply Air Temperature Difference {deltaC}
  SupplyAirTemperature,                   !- Zone Heating Design Supply Air Temperature Input Method
  40,                                     !- Zone Heating Design Supply Air Temperature {C}
  11.11,                                  !- Zone Heating Design Supply Air Temperature Difference {deltaC}
  0.0085,                                 !- Zone Cooling Design Supply Air Humidity Ratio {kg-H2O/kg-air}
  0.008,                                  !- Zone Heating Design Supply Air Humidity Ratio {kg-H2O/kg-air}
  ,                                       !- Zone Heating Sizing Factor
  ,                                       !- Zone Cooling Sizing Factor
  DesignDay,                              !- Cooling Design Air Flow Method
  ,                                       !- Cooling Design Air Flow Rate {m3/s}
  ,                                       !- Cooling Minimum Air Flow per Zone Floor Area {m3/s-m2}
  ,                                       !- Cooling Minimum Air Flow {m3/s}
  ,                                       !- Cooling Minimum Air Flow Fraction
  DesignDay,                              !- Heating Design Air Flow Method
  ,                                       !- Heating Design Air Flow Rate {m3/s}
  ,                                       !- Heating Maximum Air Flow per Zone Floor Area {m3/s-m2}
  ,                                       !- Heating Maximum Air Flow {m3/s}
  ,                                       !- Heating Maximum Air Flow Fraction
  No,                                     !- Account for Dedicated Outdoor Air System
  NeutralSupplyAir,                       !- Dedicated Outdoor Air System Control Strategy
  autosize,                               !- Dedicated Outdoor Air Low Setpoint Temperature for Design {C}
  autosize,                               !- Dedicated Outdoor Air High Setpoint Temperature for Design {C}
  Sensible Load Only No Latent Load,      !- Zone Load Sizing Method
  HumidityRatioDifference,                !- Zone Latent Cooling Design Supply Air Humidity Ratio Input Method
  ,                                       !- Zone Dehumidification Design Supply Air Humidity Ratio {kgWater/kgDryAir}
  0.005,                                  !- Zone Cooling Design Supply Air Humidity Ratio Difference {kgWater/kgDryAir}
  HumidityRatioDifference,                !- Zone Latent Heating Design Supply Air Humidity Ratio Input Method
  ,                                       !- Zone Humidification Design Supply Air Humidity Ratio {kgWater/kgDryAir}
  0.005,                                  !- Zone Humidification Design Supply Air Humidity Ratio Difference {kgWater/kgDryAir}
  ,                                       !- Zone Humidistat Dehumidification Set Point Schedule Name
  ,                                       !- Zone Humidistat Humidification Set Point Schedule Name
  ,                                       !- Design Zone Air Distribution Effectiveness in Cooling Mode
  ,                                       !- Design Zone Air Distribution Effectiveness in Heating Mode
  ,                                       !- Design Zone Secondary Recirculation Fraction {dimensionless}
  ,                                       !- Design Minimum Zone Ventilation Efficiency {dimensionless}
  Coincident;                             !- Sizing Option

OS:ZoneHVAC:EquipmentList,
  {798c74ad-830e-49f1-b855-73215c65ef64}, !- Handle
  Zone HVAC Equipment List 1,             !- Name
  {996c1530-c777-4ce4-ae15-d91906f25e9c}, !- Thermal Zone
  ,                                       !- Load Distribution Scheme
  {9eb3e3ab-de27-402a-a724-539f26feea94}, !- Zone Equipment 1
  1,                                      !- Zone Equipment Cooling Sequence 1
  1,                                      !- Zone Equipment Heating or No-Load Sequence 1
  {024d03e5-9fb1-48ad-b3e2-06b02c631c49}, !- Zone Equipment Sequential Cooling Fraction Schedule Name 1
  {d45d7750-fdd2-48d3-b010-a251fab157c5}; !- Zone Equipment Sequential Heating Fraction Schedule Name 1

OS:AdditionalProperties,
  {dcd97ba5-2811-4f76-8d2c-c9069decd42c}, !- Handle
  {996c1530-c777-4ce4-ae15-d91906f25e9c}, !- Object Name
  ObjectType,                             !- Feature Name 1
  String,                                 !- Feature Data Type 1
  conditioned space;                      !- Feature Value 1

OS:Space,
  {fe74a2d6-3f54-4c1b-b758-05e772f1a681}, !- Handle
  conditioned space 1,                    !- Name
  ,                                       !- Space Type Name
  ,                                       !- Default Construction Set Name
  ,                                       !- Default Schedule Set Name
  ,                                       !- Direction of Relative North {deg}
  ,                                       !- X Origin {m}
  ,                                       !- Y Origin {m}
  ,                                       !- Z Origin {m}
  ,                                       !- Building Story Name
  {996c1530-c777-4ce4-ae15-d91906f25e9c}, !- Thermal Zone Name
  ,                                       !- Part of Total Floor Area
  ,                                       !- Design Specification Outdoor Air Object Name
  ,                                       !- Building Unit Name
  692.06373070848;                        !- Volume {m3}

OS:Schedule:Ruleset,
  {bb46e90a-f9b8-4d2d-b5da-ce34fa87b681}, !- Handle
  heating setpoint,                       !- Name
  {1f5bc0b5-e396-4d16-98ed-1541a968fb8d}, !- Schedule Type Limits Name
  {e6f6dcc1-424d-4673-b67f-ec89ff18d90f}; !- Default Day Schedule Name

OS:Schedule:Day,
  {e6f6dcc1-424d-4673-b67f-ec89ff18d90f}, !- Handle
  heating setpoint default day,           !- Name
  {1f5bc0b5-e396-4d16-98ed-1541a968fb8d}, !- Schedule Type Limits Name
  ,                                       !- Interpolate to Timestep
  24,                                     !- Hour 1
  0,                                      !- Minute 1
  0;                                      !- Value Until Time 1

OS:Schedule:Rule,
  {c94b5625-6ae1-4fba-8c94-8d5d3318432e}, !- Handle
  heating setpoint allday rule,           !- Name
  {bb46e90a-f9b8-4d2d-b5da-ce34fa87b681}, !- Schedule Ruleset Name
  0,                                      !- Rule Order
  {8ac2f345-5a26-4504-98c6-30b4eccd61dd}, !- Day Schedule Name
  Yes,                                    !- Apply Sunday
  Yes,                                    !- Apply Monday
  Yes,                                    !- Apply Tuesday
  Yes,                                    !- Apply Wednesday
  Yes,                                    !- Apply Thursday
  Yes,                                    !- Apply Friday
  Yes,                                    !- Apply Saturday
  DateRange,                              !- Date Specification Type
  1,                                      !- Start Month
  1,                                      !- Start Day
  12,                                     !- End Month
  31;                                     !- End Day

OS:Schedule:Day,
  {8ac2f345-5a26-4504-98c6-30b4eccd61dd}, !- Handle
  heating setpoint day,                   !- Name
  {1f5bc0b5-e396-4d16-98ed-1541a968fb8d}, !- Schedule Type Limits Name
  ,                                       !- Interpolate to Timestep
  24,                                     !- Hour 1
  0,                                      !- Minute 1
  20;                                     !- Value Until Time 1

OS:Schedule:Ruleset,
  {a06f4cbf-101b-4d07-8c48-a79a469909e5}, !- Handle
  cooling setpoint,                       !- Name
  {1f5bc0b5-e396-4d16-98ed-1541a968fb8d}, !- Schedule Type Limits Name
  {58bdeda1-4fb8-427e-9efb-6de783783eaa}; !- Default Day Schedule Name

OS:Schedule:Day,
  {58bdeda1-4fb8-427e-9efb-6de783783eaa}, !- Handle
  cooling setpoint default day,           !- Name
  {1f5bc0b5-e396-4d16-98ed-1541a968fb8d}, !- Schedule Type Limits Name
  ,                                       !- Interpolate to Timestep
  24,                                     !- Hour 1
  0,                                      !- Minute 1
  0;                                      !- Value Until Time 1

OS:Schedule:Rule,
  {71c193d3-3740-45ec-9c8d-d69de2f36825}, !- Handle
  cooling setpoint allday rule,           !- Name
  {a06f4cbf-101b-4d07-8c48-a79a469909e5}, !- Schedule Ruleset Name
  0,                                      !- Rule Order
  {46937c93-08b0-4a2b-868b-37e509945111}, !- Day Schedule Name
  Yes,                                    !- Apply Sunday
  Yes,                                    !- Apply Monday
  Yes,                                    !- Apply Tuesday
  Yes,                                    !- Apply Wednesday
  Yes,                                    !- Apply Thursday
  Yes,                                    !- Apply Friday
  Yes,                                    !- Apply Saturday
  DateRange,                              !- Date Specification Type
  1,                                      !- Start Month
  1,                                      !- Start Day
  12,                                     !- End Month
  31;                                     !- End Day

OS:Schedule:Day,
  {46937c93-08b0-4a2b-868b-37e509945111}, !- Handle
  cooling setpoint day,                   !- Name
  {1f5bc0b5-e396-4d16-98ed-1541a968fb8d}, !- Schedule Type Limits Name
  ,                                       !- Interpolate to Timestep
  24,                                     !- Hour 1
  0,                                      !- Minute 1
  25.5555555555556;                       !- Value Until Time 1

OS:ThermostatSetpoint:DualSetpoint,
  {16ccc196-59cd-4aa7-8109-bbc4aff7dad2}, !- Handle
  conditioned space temperature setpoint, !- Name
  {bb46e90a-f9b8-4d2d-b5da-ce34fa87b681}, !- Heating Setpoint Temperature Schedule Name
  {a06f4cbf-101b-4d07-8c48-a79a469909e5}, !- Cooling Setpoint Temperature Schedule Name
  0;                                      !- Temperature Difference Between Cutout And Setpoint {deltaC}

OS:ScheduleTypeLimits,
  {1f5bc0b5-e396-4d16-98ed-1541a968fb8d}, !- Handle
  Temperature,                            !- Name
  ,                                       !- Lower Limit Value
  ,                                       !- Upper Limit Value
  Continuous,                             !- Numeric Type
  Temperature;                            !- Unit Type

OS:Surface,
  {681a469c-9836-4de2-b103-af595340b95d}, !- Handle
  Roof1,                                  !- Name
  RoofCeiling,                            !- Surface Type
  {c2033950-9b7c-48bb-bac8-dca694bddf57}, !- Construction Name
  {0e3d1770-2e5d-4afe-9078-a557bf2fcdd0}, !- Space Name
  Outdoors,                               !- Outside Boundary Condition
  ,                                       !- Outside Boundary Condition Object
  SunExposed,                             !- Sun Exposure
  WindExposed,                            !- Wind Exposure
  ,                                       !- View Factor to Ground
  ,                                       !- Number of Vertices
  -26.9347048849634, 58.0557891618865, 2.4384, !- X,Y,Z Vertex 1 {m}
  -26.9347048849634, 46.7895631136661, 8.0715130241102, !- X,Y,Z Vertex 2 {m}
  -14.3386812381136, 46.7895631136661, 8.0715130241102, !- X,Y,Z Vertex 3 {m}
  -14.3386812381136, 58.0557891618865, 2.4384; !- X,Y,Z Vertex 4 {m}

OS:AdditionalProperties,
  {24f45f53-134f-4c82-8221-31adc4e36a80}, !- Handle
  {681a469c-9836-4de2-b103-af595340b95d}, !- Object Name
  Length,                                 !- Feature Name 1
  Double,                                 !- Feature Data Type 1
  41.325536899113608,                     !- Feature Value 1
  Width,                                  !- Feature Name 2
  Double,                                 !- Feature Data Type 2
  41.325536899113601,                     !- Feature Value 2
  Azimuth,                                !- Feature Name 3
  Integer,                                !- Feature Data Type 3
  0,                                      !- Feature Value 3
  Tilt,                                   !- Feature Name 4
  Double,                                 !- Feature Data Type 4
  0.5,                                    !- Feature Value 4
  SurfaceType,                            !- Feature Name 5
  String,                                 !- Feature Data Type 5
  Roof;                                   !- Feature Value 5

OS:ThermalZone,
  {31850ef0-1450-44d4-b414-51e81e7c530a}, !- Handle
  attic - vented,                         !- Name
  1,                                      !- Multiplier
  ,                                       !- Ceiling Height {m}
  356.390921899745,                       !- Volume {m3}
  ,                                       !- Floor Area {m2}
  ,                                       !- Zone Inside Convection Algorithm
  ,                                       !- Zone Outside Convection Algorithm
  ,                                       !- Zone Conditioning Equipment List Name
  {b4fc8b18-1353-43f9-928e-3fe11ea1813c}, !- Zone Air Inlet Port List
  {a788e55b-c359-4e9e-9129-78bd88c0aaa5}, !- Zone Air Exhaust Port List
  {8a873a5c-0dab-4a6c-805b-c78b90c29c3d}, !- Zone Air Node Name
  {abbd396a-b691-4910-8096-77da64bbd6cc}, !- Zone Return Air Port List
  ,                                       !- Primary Daylighting Control Name
  ,                                       !- Fraction of Zone Controlled by Primary Daylighting Control
  ,                                       !- Secondary Daylighting Control Name
  ,                                       !- Fraction of Zone Controlled by Secondary Daylighting Control
  ,                                       !- Illuminance Map Name
  ,                                       !- Group Rendering Name
  ,                                       !- Thermostat Name
  No;                                     !- Use Ideal Air Loads

OS:Node,
  {ac4656cd-e464-4ed2-827c-ffeb6352884c}, !- Handle
  Node 2,                                 !- Name
  {8a873a5c-0dab-4a6c-805b-c78b90c29c3d}, !- Inlet Port
  ;                                       !- Outlet Port

OS:Connection,
  {8a873a5c-0dab-4a6c-805b-c78b90c29c3d}, !- Handle
  {31850ef0-1450-44d4-b414-51e81e7c530a}, !- Source Object
  11,                                     !- Outlet Port
  {ac4656cd-e464-4ed2-827c-ffeb6352884c}, !- Target Object
  2;                                      !- Inlet Port

OS:PortList,
  {b4fc8b18-1353-43f9-928e-3fe11ea1813c}, !- Handle
  {31850ef0-1450-44d4-b414-51e81e7c530a}; !- HVAC Component

OS:PortList,
  {a788e55b-c359-4e9e-9129-78bd88c0aaa5}, !- Handle
  {31850ef0-1450-44d4-b414-51e81e7c530a}; !- HVAC Component

OS:PortList,
  {abbd396a-b691-4910-8096-77da64bbd6cc}, !- Handle
  {31850ef0-1450-44d4-b414-51e81e7c530a}; !- HVAC Component

OS:Sizing:Zone,
  {d968bb0a-a187-4d2d-b6a3-0c078bf259a0}, !- Handle
  {31850ef0-1450-44d4-b414-51e81e7c530a}, !- Zone or ZoneList Name
  SupplyAirTemperature,                   !- Zone Cooling Design Supply Air Temperature Input Method
  14,                                     !- Zone Cooling Design Supply Air Temperature {C}
  11.11,                                  !- Zone Cooling Design Supply Air Temperature Difference {deltaC}
  SupplyAirTemperature,                   !- Zone Heating Design Supply Air Temperature Input Method
  40,                                     !- Zone Heating Design Supply Air Temperature {C}
  11.11,                                  !- Zone Heating Design Supply Air Temperature Difference {deltaC}
  0.0085,                                 !- Zone Cooling Design Supply Air Humidity Ratio {kg-H2O/kg-air}
  0.008,                                  !- Zone Heating Design Supply Air Humidity Ratio {kg-H2O/kg-air}
  ,                                       !- Zone Heating Sizing Factor
  ,                                       !- Zone Cooling Sizing Factor
  DesignDay,                              !- Cooling Design Air Flow Method
  ,                                       !- Cooling Design Air Flow Rate {m3/s}
  ,                                       !- Cooling Minimum Air Flow per Zone Floor Area {m3/s-m2}
  ,                                       !- Cooling Minimum Air Flow {m3/s}
  ,                                       !- Cooling Minimum Air Flow Fraction
  DesignDay,                              !- Heating Design Air Flow Method
  ,                                       !- Heating Design Air Flow Rate {m3/s}
  ,                                       !- Heating Maximum Air Flow per Zone Floor Area {m3/s-m2}
  ,                                       !- Heating Maximum Air Flow {m3/s}
  ,                                       !- Heating Maximum Air Flow Fraction
  No,                                     !- Account for Dedicated Outdoor Air System
  NeutralSupplyAir,                       !- Dedicated Outdoor Air System Control Strategy
  autosize,                               !- Dedicated Outdoor Air Low Setpoint Temperature for Design {C}
  autosize,                               !- Dedicated Outdoor Air High Setpoint Temperature for Design {C}
  Sensible Load Only No Latent Load,      !- Zone Load Sizing Method
  HumidityRatioDifference,                !- Zone Latent Cooling Design Supply Air Humidity Ratio Input Method
  ,                                       !- Zone Dehumidification Design Supply Air Humidity Ratio {kgWater/kgDryAir}
  0.005,                                  !- Zone Cooling Design Supply Air Humidity Ratio Difference {kgWater/kgDryAir}
  HumidityRatioDifference,                !- Zone Latent Heating Design Supply Air Humidity Ratio Input Method
  ,                                       !- Zone Humidification Design Supply Air Humidity Ratio {kgWater/kgDryAir}
  0.005,                                  !- Zone Humidification Design Supply Air Humidity Ratio Difference {kgWater/kgDryAir}
  ,                                       !- Zone Humidistat Dehumidification Set Point Schedule Name
  ,                                       !- Zone Humidistat Humidification Set Point Schedule Name
  ,                                       !- Design Zone Air Distribution Effectiveness in Cooling Mode
  ,                                       !- Design Zone Air Distribution Effectiveness in Heating Mode
  ,                                       !- Design Zone Secondary Recirculation Fraction {dimensionless}
  ,                                       !- Design Minimum Zone Ventilation Efficiency {dimensionless}
  Coincident;                             !- Sizing Option

OS:ZoneHVAC:EquipmentList,
  {305b48a2-e234-4527-ba46-78255f3f4fd6}, !- Handle
  Zone HVAC Equipment List 2,             !- Name
  {31850ef0-1450-44d4-b414-51e81e7c530a}; !- Thermal Zone

OS:AdditionalProperties,
  {806d4d4e-f565-4e7b-bf6e-e47486bdf1d1}, !- Handle
  {31850ef0-1450-44d4-b414-51e81e7c530a}, !- Object Name
  ObjectType,                             !- Feature Name 1
  String,                                 !- Feature Data Type 1
  attic - vented;                         !- Feature Value 1

OS:Space,
  {0e3d1770-2e5d-4afe-9078-a557bf2fcdd0}, !- Handle
  attic - vented 1,                       !- Name
  ,                                       !- Space Type Name
  ,                                       !- Default Construction Set Name
  ,                                       !- Default Schedule Set Name
  ,                                       !- Direction of Relative North {deg}
  ,                                       !- X Origin {m}
  ,                                       !- Y Origin {m}
  ,                                       !- Z Origin {m}
  ,                                       !- Building Story Name
  {31850ef0-1450-44d4-b414-51e81e7c530a}, !- Thermal Zone Name
  ,                                       !- Part of Total Floor Area
  ,                                       !- Design Specification Outdoor Air Object Name
  ,                                       !- Building Unit Name
  356.390921899745;                       !- Volume {m3}

OS:Material,
  {3f835402-5898-4e29-9c16-9fc2f884ead4}, !- Handle
  asphalt or fiberglass shingles,         !- Name
  Rough,                                  !- Roughness
  0.00635,                                !- Thickness {m}
  0.162714,                               !- Conductivity {W/m-K}
  1121.4,                                 !- Density {kg/m3}
  1465.45,                                !- Specific Heat {J/kg-K}
  0.9,                                    !- Thermal Absorptance
  0.85,                                   !- Solar Absorptance