
OS:Version,
  {90226546-3fea-47b6-afb9-460da727197b}, !- Handle
  3.9.0;                                  !- Version Identifier

OS:SimulationControl,
  {4c785ddc-e161-432f-a134-4dd09bdf8b7f}, !- Handle
  ,                                       !- Do Zone Sizing Calculation
  ,                                       !- Do System Sizing Calculation
  ,                                       !- Do Plant Sizing Calculation
  No;                                     !- Run Simulation for Sizing Periods

OS:Timestep,
  {a39a799f-852f-449e-9f91-34e717000b63}, !- Handle
  1;                                      !- Number of Timesteps per Hour

OS:ShadowCalculation,
  {ac345497-060c-4f42-ae61-182928d4e2d5}, !- Handle
  PolygonClipping,                        !- Shading Calculation Method
  ,                                       !- Shading Calculation Update Frequency Method
  20,                                     !- Shading Calculation Update Frequency
  200,                                    !- Maximum Figures in Shadow Overlap Calculations
  ,                                       !- Polygon Clipping Algorithm
  512,                                    !- Pixel Counting Resolution
  ,                                       !- Sky Diffuse Modeling Algorithm
  No,                                     !- Output External Shading Calculation Results
  No,                                     !- Disable Self-Shading Within Shading Zone Groups
  No;                                     !- Disable Self-Shading From Shading Zone Groups to Other Zones

OS:SurfaceConvectionAlgorithm:Outside,
  {f38ead6b-2c8f-4f18-97ec-b5cb5211bb08}, !- Handle
  DOE-2;                                  !- Algorithm

OS:SurfaceConvectionAlgorithm:Inside,
  {d83eaeb0-4098-4ab7-a189-c7b4d21875a0}, !- Handle
  TARP;                                   !- Algorithm

OS:ZoneCapacitanceMultiplier:ResearchSpecial,
  {751c31ee-3feb-4270-a0ae-5e374fe15f26}, !- Handle
  7,                                      !- Temperature Capacity Multiplier
  15,                                     !- Humidity Capacity Multiplier
  ;                                       !- Carbon Dioxide Capacity Multiplier

OS:ConvergenceLimits,
  {46705e2e-00d3-460a-ae7a-5db731114d67}, !- Handle
  0;                                      !- Minimum System Timestep {minutes}

OS:RunPeriod,
  {6181f560-cbf5-44b0-8840-e6c6c82575f6}, !- Handle
  Run Period 1,                           !- Name
  1,                                      !- Begin Month
  1,                                      !- Begin Day of Month
  12,                                     !- End Month
  31,                                     !- End Day of Month
  ,                                       !- Use Weather File Holidays and Special Days
  ,                                       !- Use Weather File Daylight Saving Period
  ,                                       !- Apply Weekend Holiday Rule
  ,                                       !- Use Weather File Rain Indicators
  ,                                       !- Use Weather File Snow Indicators
  ;                                       !- Number of Times Runperiod to be Repeated

OS:PerformancePrecisionTradeoffs,
  {d8d2dfb4-e2cc-48ea-99a9-6afdbecf5529}, !- Handle
  ,                                       !- Use Coil Direct Solutions
  CarrollMRT;                             !- Zone Radiant Exchange Algorithm

OS:WeatherFile,
  {d05ae4a4-2881-4026-ba83-1433c8ebea49}, !- Handle
  Buffalo Niagara Intl Ap,                !- City
  NY,                                     !- State Province Region
  USA,                                    !- Country
  TMY3,                                   !- Data Source
  725280,                                 !- WMO Number
  42.93,                                  !- Latitude {deg}
  -78.73,                                 !- Longitude {deg}
  -5,                                     !- Time Zone {hr}
  215,                                    !- Elevation {m}
  /Users/nmoore/github/urbanopt-example-geojson-project/example_project/weather/USA_NY_Buffalo-Greater.Buffalo.Intl.AP.725280_TMY3.epw, !- Url
  6B50E0FF,                               !- Checksum
  ,                                       !- Start Date Actual Year
  Sunday;                                 !- Start Day of Week

OS:YearDescription,
  {3fcdc320-ab64-46a7-b391-c481ac70e622}, !- Handle
  2007,                                   !- Calendar Year
  ,                                       !- Day of Week for Start Day
  ;                                       !- Is Leap Year

OS:Site,
  {34dbf944-6fdc-4bcf-9fc9-8257f8569853}, !- Handle
  Buffalo Niagara Intl Ap_NY,             !- Name
  42.93,                                  !- Latitude {deg}
  -78.73,                                 !- Longitude {deg}
  -5,                                     !- Time Zone {hr}
  215,                                    !- Elevation {m}
  Suburbs,                                !- Terrain
  Yes;                                    !- Keep Site Location Information

OS:RunPeriodControl:DaylightSavingTime,
  {613d677b-dfe7-405e-bf0c-d44bdd672ddc}, !- Handle
  Mar 12,                                 !- Start Date
  Nov 5;                                  !- End Date

OS:Site:GroundTemperature:Shallow,
  {000f04e3-1fde-427d-84f2-24eba0ab6483}, !- Handle
  4.30207395723828,                       !- January Surface Ground Temperature {C}
  2.29327249652502,                       !- February Surface Ground Temperature {C}
  2.13240047156047,                       !- March Surface Ground Temperature {C}
  3.08567940719286,                       !- April Surface Ground Temperature {C}
  6.91256312497526,                       !- May Surface Ground Temperature {C}
  10.7216195949507,                       !- June Surface Ground Temperature {C}
  14.0238679822574,                       !- July Surface Ground Temperature {C}
  16.1157611184724,                       !- August Surface Ground Temperature {C}
  16.2934789303462,                       !- September Surface Ground Temperature {C}
  14.5920754632847,                       !- October Surface Ground Temperature {C}
  11.374036348653,                        !- November Surface Ground Temperature {C}
  7.68182621661674;                       !- December Surface Ground Temperature {C}

OS:ThermalZone,
  {5330244b-935f-43cb-aff1-8c3314f5219f}, !- Handle
  conditioned space,                      !- Name
  1,                                      !- Multiplier
  ,                                       !- Ceiling Height {m}
  692.06373070848,                        !- Volume {m3}
  ,                                       !- Floor Area {m2}
  ,                                       !- Zone Inside Convection Algorithm
  ,                                       !- Zone Outside Convection Algorithm
  ,                                       !- Zone Conditioning Equipment List Name
  {df992d90-0cb7-47d1-b7a1-69516fcb3398}, !- Zone Air Inlet Port List
  {1e17be77-868e-46d8-a454-adbc8ed1e4c9}, !- Zone Air Exhaust Port List
  {799b9252-d831-4ea1-bf42-5e3169069fa4}, !- Zone Air Node Name
  {09ba0b93-acc6-47ca-b2fe-07cbb0bb0b3a}, !- Zone Return Air Port List
  ,                                       !- Primary Daylighting Control Name
  ,                                       !- Fraction of Zone Controlled by Primary Daylighting Control
  ,                                       !- Secondary Daylighting Control Name
  ,                                       !- Fraction of Zone Controlled by Secondary Daylighting Control
  ,                                       !- Illuminance Map Name
  ,                                       !- Group Rendering Name
  {03e8fca4-0710-44d2-a50b-511fa9bdbda3}, !- Thermostat Name
  No;                                     !- Use Ideal Air Loads

OS:Node,
  {ed6a7925-bfa8-4f85-8a10-b1425d8fe101}, !- Handle
  Node 1,                                 !- Name
  {799b9252-d831-4ea1-bf42-5e3169069fa4}, !- Inlet Port
  ;                                       !- Outlet Port

OS:Connection,
  {799b9252-d831-4ea1-bf42-5e3169069fa4}, !- Handle
  {5330244b-935f-43cb-aff1-8c3314f5219f}, !- Source Object
  11,                                     !- Outlet Port
  {ed6a7925-bfa8-4f85-8a10-b1425d8fe101}, !- Target Object
  2;                                      !- Inlet Port

OS:PortList,
  {df992d90-0cb7-47d1-b7a1-69516fcb3398}, !- Handle
  {5330244b-935f-43cb-aff1-8c3314f5219f}, !- HVAC Component
  {d87459db-8047-4ab1-94fa-79911a53a9be}; !- Port 1

OS:PortList,
  {1e17be77-868e-46d8-a454-adbc8ed1e4c9}, !- Handle
  {5330244b-935f-43cb-aff1-8c3314f5219f}; !- HVAC Component

OS:PortList,
  {09ba0b93-acc6-47ca-b2fe-07cbb0bb0b3a}, !- Handle
  {5330244b-935f-43cb-aff1-8c3314f5219f}, !- HVAC Component
  {2a968e09-934c-423c-86b4-3755a04bd46a}; !- Port 1

OS:Sizing:Zone,
  {efa3a85b-04d5-4e0c-8f6d-de5eea6bfcbf}, !- Handle
  {5330244b-935f-43cb-aff1-8c3314f5219f}, !- Zone or ZoneList Name
  SupplyAirTemperature,                   !- Zone Cooling Design Supply Air Temperature Input Method
  14,                                     !- Zone Cooling Design Supply Air Temperature {C}
  11.11,                                  !- Zone Cooling Design Supply Air Temperature Difference {deltaC}
  SupplyAirTemperature,                   !- Zone Heating Design Supply Air Temperature Input Method
  40,                                     !- Zone Heating Design Supply Air Temperature {C}
  11.11,                                  !- Zone Heating Design Supply Air Temperature Difference {deltaC}
  0.0085,                                 !- Zone Cooling Design Supply Air Humidity Ratio {kg-H2O/kg-air}
  0.008,                                  !- Zone Heating Design Supply Air Humidity Ratio {kg-H2O/kg-air}
  ,                                       !- Zone Heating Sizing Factor
  ,                                       !- Zone Cooling Sizing Factor
  DesignDay,                              !- Cooling Design Air Flow Method
  ,                                       !- Cooling Design Air Flow Rate {m3/s}
  ,                                       !- Cooling Minimum Air Flow per Zone Floor Area {m3/s-m2}
  ,                                       !- Cooling Minimum Air Flow {m3/s}
  ,                                       !- Cooling Minimum Air Flow Fraction
  DesignDay,                              !- Heating Design Air Flow Method
  ,                                       !- Heating Design Air Flow Rate {m3/s}
  ,                                       !- Heating Maximum Air Flow per Zone Floor Area {m3/s-m2}
  ,                                       !- Heating Maximum Air Flow {m3/s}
  ,                                       !- Heating Maximum Air Flow Fraction
  No,                                     !- Account for Dedicated Outdoor Air System
  NeutralSupplyAir,                       !- Dedicated Outdoor Air System Control Strategy
  autosize,                               !- Dedicated Outdoor Air Low Setpoint Temperature for Design {C}
  autosize,                               !- Dedicated Outdoor Air High Setpoint Temperature for Design {C}
  Sensible Load Only No Latent Load,      !- Zone Load Sizing Method
  HumidityRatioDifference,                !- Zone Latent Cooling Design Supply Air Humidity Ratio Input Method
  ,                                       !- Zone Dehumidification Design Supply Air Humidity Ratio {kgWater/kgDryAir}
  0.005,                                  !- Zone Cooling Design Supply Air Humidity Ratio Difference {kgWater/kgDryAir}
  HumidityRatioDifference,                !- Zone Latent Heating Design Supply Air Humidity Ratio Input Method
  ,                                       !- Zone Humidification Design Supply Air Humidity Ratio {kgWater/kgDryAir}
  0.005,                                  !- Zone Humidification Design Supply Air Humidity Ratio Difference {kgWater/kgDryAir}
  ,                                       !- Zone Humidistat Dehumidification Set Point Schedule Name
  ,                                       !- Zone Humidistat Humidification Set Point Schedule Name
  ,                                       !- Design Zone Air Distribution Effectiveness in Cooling Mode
  ,                                       !- Design Zone Air Distribution Effectiveness in Heating Mode
  ,                                       !- Design Zone Secondary Recirculation Fraction {dimensionless}
  ,                                       !- Design Minimum Zone Ventilation Efficiency {dimensionless}
  Coincident;                             !- Sizing Option

OS:ZoneHVAC:EquipmentList,
  {ae7f18b2-8397-4ce3-aed4-58f19c210ae0}, !- Handle
  Zone HVAC Equipment List 1,             !- Name
  {5330244b-935f-43cb-aff1-8c3314f5219f}, !- Thermal Zone
  ,                                       !- Load Distribution Scheme
  {1ad0591a-9abc-4dcf-a4dc-a34c77528f3c}, !- Zone Equipment 1
  1,                                      !- Zone Equipment Cooling Sequence 1
  1,                                      !- Zone Equipment Heating or No-Load Sequence 1
  {f9b03505-6b4b-44ee-ad12-1c587e6f5645}, !- Zone Equipment Sequential Cooling Fraction Schedule Name 1
  {2709f939-175c-4139-aee6-07765a53c57a}; !- Zone Equipment Sequential Heating Fraction Schedule Name 1

OS:AdditionalProperties,
  {300f73bc-9382-43d7-8fcd-84a3860c9198}, !- Handle
  {5330244b-935f-43cb-aff1-8c3314f5219f}, !- Object Name
  ObjectType,                             !- Feature Name 1
  String,                                 !- Feature Data Type 1
  conditioned space;                      !- Feature Value 1

OS:Space,
  {4e601c87-f66b-45be-a71c-3987a138789c}, !- Handle
  conditioned space 1,                    !- Name
  ,                                       !- Space Type Name
  ,                                       !- Default Construction Set Name
  ,                                       !- Default Schedule Set Name
  ,                                       !- Direction of Relative North {deg}
  ,                                       !- X Origin {m}
  ,                                       !- Y Origin {m}
  ,                                       !- Z Origin {m}
  ,                                       !- Building Story Name
  {5330244b-935f-43cb-aff1-8c3314f5219f}, !- Thermal Zone Name
  ,                                       !- Part of Total Floor Area
  ,                                       !- Design Specification Outdoor Air Object Name
  ,                                       !- Building Unit Name
  692.06373070848;                        !- Volume {m3}

OS:Schedule:Ruleset,
  {e62f1c7d-307b-4ba2-b328-2fec111a7e47}, !- Handle
  heating setpoint,                       !- Name
  {b05a0568-9a29-40ec-9b00-b7977f91b276}, !- Schedule Type Limits Name
  {461b1dce-2764-4443-9f13-9ce006fe773d}; !- Default Day Schedule Name

OS:Schedule:Day,
  {461b1dce-2764-4443-9f13-9ce006fe773d}, !- Handle
  heating setpoint default day,           !- Name
  {b05a0568-9a29-40ec-9b00-b7977f91b276}, !- Schedule Type Limits Name
  ,                                       !- Interpolate to Timestep
  24,                                     !- Hour 1
  0,                                      !- Minute 1
  0;                                      !- Value Until Time 1

OS:Schedule:Rule,
  {b6d8f416-b1c7-4b21-9922-f266fdf7aef4}, !- Handle
  heating setpoint allday rule,           !- Name
  {e62f1c7d-307b-4ba2-b328-2fec111a7e47}, !- Schedule Ruleset Name
  0,                                      !- Rule Order
  {073cf5d4-0175-49b6-99fb-53e91bd0cd96}, !- Day Schedule Name
  Yes,                                    !- Apply Sunday
  Yes,                                    !- Apply Monday
  Yes,                                    !- Apply Tuesday
  Yes,                                    !- Apply Wednesday
  Yes,                                    !- Apply Thursday
  Yes,                                    !- Apply Friday
  Yes,                                    !- Apply Saturday
  DateRange,                              !- Date Specification Type
  1,                                      !- Start Month
  1,                                      !- Start Day
  12,                                     !- End Month
  31;                                     !- End Day

OS:Schedule:Day,
  {073cf5d4-0175-49b6-99fb-53e91bd0cd96}, !- Handle
  heating setpoint day,                   !- Name
  {b05a0568-9a29-40ec-9b00-b7977f91b276}, !- Schedule Type Limits Name
  ,                                       !- Interpolate to Timestep
  24,                                     !- Hour 1
  0,                                      !- Minute 1
  20;                                     !- Value Until Time 1

OS:Schedule:Ruleset,
  {e1546b88-562a-4cc5-a017-0afac0a2b192}, !- Handle
  cooling setpoint,                       !- Name
  {b05a0568-9a29-40ec-9b00-b7977f91b276}, !- Schedule Type Limits Name
  {bc09729b-3276-4431-abce-13ec5b53029f}; !- Default Day Schedule Name

OS:Schedule:Day,
  {bc09729b-3276-4431-abce-13ec5b53029f}, !- Handle
  cooling setpoint default day,           !- Name
  {b05a0568-9a29-40ec-9b00-b7977f91b276}, !- Schedule Type Limits Name
  ,                                       !- Interpolate to Timestep
  24,                                     !- Hour 1
  0,                                      !- Minute 1
  0;                                      !- Value Until Time 1

OS:Schedule:Rule,
  {29543a3a-6c3e-47cf-8687-6cedca4e0cc8}, !- Handle
  cooling setpoint allday rule,           !- Name
  {e1546b88-562a-4cc5-a017-0afac0a2b192}, !- Schedule Ruleset Name
  0,                                      !- Rule Order
  {df24d710-dd78-43c9-b96f-0d622695851e}, !- Day Schedule Name
  Yes,                                    !- Apply Sunday
  Yes,                                    !- Apply Monday
  Yes,                                    !- Apply Tuesday
  Yes,                                    !- Apply Wednesday
  Yes,                                    !- Apply Thursday
  Yes,                                    !- Apply Friday
  Yes,                                    !- Apply Saturday
  DateRange,                              !- Date Specification Type
  1,                                      !- Start Month
  1,                                      !- Start Day
  12,                                     !- End Month
  31;                                     !- End Day

OS:Schedule:Day,
  {df24d710-dd78-43c9-b96f-0d622695851e}, !- Handle
  cooling setpoint day,                   !- Name
  {b05a0568-9a29-40ec-9b00-b7977f91b276}, !- Schedule Type Limits Name
  ,                                       !- Interpolate to Timestep
  24,                                     !- Hour 1
  0,                                      !- Minute 1
  25.5555555555556;                       !- Value Until Time 1

OS:ThermostatSetpoint:DualSetpoint,
  {03e8fca4-0710-44d2-a50b-511fa9bdbda3}, !- Handle
  conditioned space temperature setpoint, !- Name
  {e62f1c7d-307b-4ba2-b328-2fec111a7e47}, !- Heating Setpoint Temperature Schedule Name
  {e1546b88-562a-4cc5-a017-0afac0a2b192}, !- Cooling Setpoint Temperature Schedule Name
  0;                                      !- Temperature Difference Between Cutout And Setpoint {deltaC}

OS:ScheduleTypeLimits,
  {b05a0568-9a29-40ec-9b00-b7977f91b276}, !- Handle
  Temperature,                            !- Name
  ,                                       !- Lower Limit Value
  ,                                       !- Upper Limit Value
  Continuous,                             !- Numeric Type
  Temperature;                            !- Unit Type

OS:Surface,
  {b6c00a5d-4fb4-4735-a7ce-c11ccce51793}, !- Handle
  Roof1,                                  !- Name
  RoofCeiling,                            !- Surface Type
  {8e6c2ba9-ba16-42e6-803b-600a750b7289}, !- Construction Name
  {8b35e739-9d55-4ca2-8578-8e0da6407371}, !- Space Name
  Outdoors,                               !- Outside Boundary Condition
  ,                                       !- Outside Boundary Condition Object
  SunExposed,                             !- Sun Exposure
  WindExposed,                            !- Wind Exposure
  ,                                       !- View Factor to Ground
  ,                                       !- Number of Vertices
  -26.9347048849634, 58.0557891618865, 2.4384, !- X,Y,Z Vertex 1 {m}
  -26.9347048849634, 46.7895631136661, 8.0715130241102, !- X,Y,Z Vertex 2 {m}
  -14.3386812381136, 46.7895631136661, 8.0715130241102, !- X,Y,Z Vertex 3 {m}
  -14.3386812381136, 58.0557891618865, 2.4384; !- X,Y,Z Vertex 4 {m}

OS:AdditionalProperties,
  {0e3e95af-57fa-4528-8241-e42700606eee}, !- Handle
  {b6c00a5d-4fb4-4735-a7ce-c11ccce51793}, !- Object Name
  Length,                                 !- Feature Name 1
  Double,                                 !- Feature Data Type 1
  41.325536899113608,                     !- Feature Value 1
  Width,                                  !- Feature Name 2
  Double,                                 !- Feature Data Type 2
  41.325536899113601,                     !- Feature Value 2
  Azimuth,                                !- Feature Name 3
  Integer,                                !- Feature Data Type 3
  0,                                      !- Feature Value 3
  Tilt,                                   !- Feature Name 4
  Double,                                 !- Feature Data Type 4
  0.5,                                    !- Feature Value 4
  SurfaceType,                            !- Feature Name 5
  String,                                 !- Feature Data Type 5
  Roof;                                   !- Feature Value 5

OS:ThermalZone,
  {e4bf390d-87dd-4daa-9daa-7883f8cb46b4}, !- Handle
  attic - vented,                         !- Name
  1,                                      !- Multiplier
  ,                                       !- Ceiling Height {m}
  356.389957095237,                       !- Volume {m3}
  ,                                       !- Floor Area {m2}
  ,                                       !- Zone Inside Convection Algorithm
  ,                                       !- Zone Outside Convection Algorithm
  ,                                       !- Zone Conditioning Equipment List Name
  {27925ff4-5143-4b59-99cf-3fbba57ad6c1}, !- Zone Air Inlet Port List
  {1d48d0a0-37a4-4376-920e-036f6907e40d}, !- Zone Air Exhaust Port List
  {d107fd64-fe37-4cc4-b3ed-53fe68b8d1c9}, !- Zone Air Node Name
  {be769ca6-9c9a-42fb-82fe-872d94042e95}, !- Zone Return Air Port List
  ,                                       !- Primary Daylighting Control Name
  ,                                       !- Fraction of Zone Controlled by Primary Daylighting Control
  ,                                       !- Secondary Daylighting Control Name
  ,                                       !- Fraction of Zone Controlled by Secondary Daylighting Control
  ,                                       !- Illuminance Map Name
  ,                                       !- Group Rendering Name
  ,                                       !- Thermostat Name
  No;                                     !- Use Ideal Air Loads

OS:Node,
  {d47434fc-6b64-41f7-bc9c-69c659974597}, !- Handle
  Node 2,                                 !- Name
  {d107fd64-fe37-4cc4-b3ed-53fe68b8d1c9}, !- Inlet Port
  ;                                       !- Outlet Port

OS:Connection,
  {d107fd64-fe37-4cc4-b3ed-53fe68b8d1c9}, !- Handle
  {e4bf390d-87dd-4daa-9daa-7883f8cb46b4}, !- Source Object
  11,                                     !- Outlet Port
  {d47434fc-6b64-41f7-bc9c-69c659974597}, !- Target Object
  2;                                      !- Inlet Port

OS:PortList,
  {27925ff4-5143-4b59-99cf-3fbba57ad6c1}, !- Handle
  {e4bf390d-87dd-4daa-9daa-7883f8cb46b4}; !- HVAC Component

OS:PortList,
  {1d48d0a0-37a4-4376-920e-036f6907e40d}, !- Handle
  {e4bf390d-87dd-4daa-9daa-7883f8cb46b4}; !- HVAC Component

OS:PortList,
  {be769ca6-9c9a-42fb-82fe-872d94042e95}, !- Handle
  {e4bf390d-87dd-4daa-9daa-7883f8cb46b4}; !- HVAC Component

OS:Sizing:Zone,
  {765974b2-8328-4743-8057-d06a9baf6f0a}, !- Handle
  {e4bf390d-87dd-4daa-9daa-7883f8cb46b4}, !- Zone or ZoneList Name
  SupplyAirTemperature,                   !- Zone Cooling Design Supply Air Temperature Input Method
  14,                                     !- Zone Cooling Design Supply Air Temperature {C}
  11.11,                                  !- Zone Cooling Design Supply Air Temperature Difference {deltaC}
  SupplyAirTemperature,                   !- Zone Heating Design Supply Air Temperature Input Method
  40,                                     !- Zone Heating Design Supply Air Temperature {C}
  11.11,                                  !- Zone Heating Design Supply Air Temperature Difference {deltaC}
  0.0085,                                 !- Zone Cooling Design Supply Air Humidity Ratio {kg-H2O/kg-air}
  0.008,                                  !- Zone Heating Design Supply Air Humidity Ratio {kg-H2O/kg-air}
  ,                                       !- Zone Heating Sizing Factor
  ,                                       !- Zone Cooling Sizing Factor
  DesignDay,                              !- Cooling Design Air Flow Method
  ,                                       !- Cooling Design Air Flow Rate {m3/s}
  ,                                       !- Cooling Minimum Air Flow per Zone Floor Area {m3/s-m2}
  ,                                       !- Cooling Minimum Air Flow {m3/s}
  ,                                       !- Cooling Minimum Air Flow Fraction
  DesignDay,                              !- Heating Design Air Flow Method
  ,                                       !- Heating Design Air Flow Rate {m3/s}
  ,                                       !- Heating Maximum Air Flow per Zone Floor Area {m3/s-m2}
  ,                                       !- Heating Maximum Air Flow {m3/s}
  ,                                       !- Heating Maximum Air Flow Fraction
  No,                                     !- Account for Dedicated Outdoor Air System
  NeutralSupplyAir,                       !- Dedicated Outdoor Air System Control Strategy
  autosize,                               !- Dedicated Outdoor Air Low Setpoint Temperature for Design {C}
  autosize,                               !- Dedicated Outdoor Air High Setpoint Temperature for Design {C}
  Sensible Load Only No Latent Load,      !- Zone Load Sizing Method
  HumidityRatioDifference,                !- Zone Latent Cooling Design Supply Air Humidity Ratio Input Method
  ,                                       !- Zone Dehumidification Design Supply Air Humidity Ratio {kgWater/kgDryAir}
  0.005,                                  !- Zone Cooling Design Supply Air Humidity Ratio Difference {kgWater/kgDryAir}
  HumidityRatioDifference,                !- Zone Latent Heating Design Supply Air Humidity Ratio Input Method
  ,                                       !- Zone Humidification Design Supply Air Humidity Ratio {kgWater/kgDryAir}
  0.005,                                  !- Zone Humidification Design Supply Air Humidity Ratio Difference {kgWater/kgDryAir}
  ,                                       !- Zone Humidistat Dehumidification Set Point Schedule Name
  ,                                       !- Zone Humidistat Humidification Set Point Schedule Name
  ,                                       !- Design Zone Air Distribution Effectiveness in Cooling Mode
  ,                                       !- Design Zone Air Distribution Effectiveness in Heating Mode
  ,                                       !- Design Zone Secondary Recirculation Fraction {dimensionless}
  ,                                       !- Design Minimum Zone Ventilation Efficiency {dimensionless}
  Coincident;                             !- Sizing Option

OS:ZoneHVAC:EquipmentList,
  {5a426803-76cb-4c75-92e1-1575deb850dd}, !- Handle
  Zone HVAC Equipment List 2,             !- Name
  {e4bf390d-87dd-4daa-9daa-7883f8cb46b4}; !- Thermal Zone

OS:AdditionalProperties,
  {5cfaad9d-fa66-4362-8ebc-b3d0199808b7}, !- Handle
  {e4bf390d-87dd-4daa-9daa-7883f8cb46b4}, !- Object Name
  ObjectType,                             !- Feature Name 1
  String,                                 !- Feature Data Type 1
  attic - vented;                         !- Feature Value 1

OS:Space,
  {8b35e739-9d55-4ca2-8578-8e0da6407371}, !- Handle
  attic - vented 1,                       !- Name
  ,                                       !- Space Type Name
  ,                                       !- Default Construction Set Name
  ,                                       !- Default Schedule Set Name
  ,                                       !- Direction of Relative North {deg}
  ,                                       !- X Origin {m}
  ,                                       !- Y Origin {m}
  ,                                       !- Z Origin {m}
  ,                                       !- Building Story Name
  {e4bf390d-87dd-4daa-9daa-7883f8cb46b4}, !- Thermal Zone Name
  ,                                       !- Part of Total Floor Area
  ,                                       !- Design Specification Outdoor Air Object Name
  ,                                       !- Building Unit Name
  356.389957095237;                       !- Volume {m3}

OS:Material,
  {e8d7eae9-1796-4ed9-adbb-141904f40c64}, !- Handle
  asphalt or fiberglass shingles,         !- Name
  Rough,                                  !- Roughness
  0.00635,                                !- Thickness {m}
  0.162714,                               !- Conductivity {W/m-K}
  1121.4,                                 !- Density {kg/m3}
  1465.45,                                !- Specific Heat {J/kg-K}
  0.9,                                    !- Thermal Absorptance
  0.85,                                   !- Solar Absorptance