
OS:Version,
  {90aa7ff9-81d2-46e2-bd4a-d7c2690eeb14}, !- Handle
  3.10.0;                                 !- Version Identifier

OS:SimulationControl,
  {46b6fa3d-2a37-4945-b0c0-02aec77d6444}, !- Handle
  ,                                       !- Do Zone Sizing Calculation
  ,                                       !- Do System Sizing Calculation
  ,                                       !- Do Plant Sizing Calculation
  No;                                     !- Run Simulation for Sizing Periods

OS:Timestep,
  {9529f2b6-3662-44b0-8244-47a839f5ec25}, !- Handle
  1;                                      !- Number of Timesteps per Hour

OS:ShadowCalculation,
  {59f9f59b-6b2f-47d2-b210-776f860c8039}, !- Handle
  PolygonClipping,                        !- Shading Calculation Method
  ,                                       !- Shading Calculation Update Frequency Method
  20,                                     !- Shading Calculation Update Frequency
  200,                                    !- Maximum Figures in Shadow Overlap Calculations
  ,                                       !- Polygon Clipping Algorithm
  512,                                    !- Pixel Counting Resolution
  ,                                       !- Sky Diffuse Modeling Algorithm
  No,                                     !- Output External Shading Calculation Results
  No,                                     !- Disable Self-Shading Within Shading Zone Groups
  No;                                     !- Disable Self-Shading From Shading Zone Groups to Other Zones

OS:SurfaceConvectionAlgorithm:Outside,
  {60df91eb-5c69-4dad-834f-09050bcdc690}, !- Handle
  DOE-2;                                  !- Algorithm

OS:SurfaceConvectionAlgorithm:Inside,
  {26a99e02-d8e4-4acf-83f5-ce829a8d0479}, !- Handle
  TARP;                                   !- Algorithm

OS:ZoneCapacitanceMultiplier:ResearchSpecial,
  {76df9b15-4ec8-4559-b81b-883cbfd7e3f4}, !- Handle
  7,                                      !- Temperature Capacity Multiplier
  15,                                     !- Humidity Capacity Multiplier
  ;                                       !- Carbon Dioxide Capacity Multiplier

OS:ConvergenceLimits,
  {202b3b98-febf-4822-8af7-6fc8c262ce7b}, !- Handle
  0;                                      !- Minimum System Timestep {minutes}

OS:RunPeriod,
  {d42f7930-ee6f-4095-a88e-9d6eb427c3e1}, !- Handle
  Run Period 1,                           !- Name
  1,                                      !- Begin Month
  1,                                      !- Begin Day of Month
  12,                                     !- End Month
  31,                                     !- End Day of Month
  ,                                       !- Use Weather File Holidays and Special Days
  ,                                       !- Use Weather File Daylight Saving Period
  ,                                       !- Apply Weekend Holiday Rule
  ,                                       !- Use Weather File Rain Indicators
  ,                                       !- Use Weather File Snow Indicators
  ;                                       !- Number of Times Runperiod to be Repeated

OS:PerformancePrecisionTradeoffs,
  {b30e38b9-6d95-4de8-8ad3-1f3521ad1124}, !- Handle
  ,                                       !- Use Coil Direct Solutions
  CarrollMRT;                             !- Zone Radiant Exchange Algorithm

OS:WeatherFile,
  {2ae8bea7-573e-4ed0-80bb-ebcdf5429d0f}, !- Handle
  Buffalo Niagara Intl Ap,                !- City
  NY,                                     !- State Province Region
  USA,                                    !- Country
  TMY3,                                   !- Data Source
  725280,                                 !- WMO Number
  42.93,                                  !- Latitude {deg}
  -78.73,                                 !- Longitude {deg}
  -5,                                     !- Time Zone {hr}
  215,                                    !- Elevation {m}
  /Users/nmoore/github/urbanopt-example-geojson-project/example_project/weather/USA_NY_Buffalo-Greater.Buffalo.Intl.AP.725280_TMY3.epw, !- Url
  6B50E0FF,                               !- Checksum
  ,                                       !- Start Date Actual Year
  Sunday;                                 !- Start Day of Week

OS:YearDescription,
  {25087207-ddab-4912-8f22-b77912bd4c0f}, !- Handle
  2007,                                   !- Calendar Year
  ,                                       !- Day of Week for Start Day
  ;                                       !- Is Leap Year

OS:Site,
  {3b339afd-74c5-4146-b9a5-791aad26c94d}, !- Handle
  Buffalo Niagara Intl Ap_NY,             !- Name
  42.93,                                  !- Latitude {deg}
  -78.73,                                 !- Longitude {deg}
  -5,                                     !- Time Zone {hr}
  215,                                    !- Elevation {m}
  Suburbs,                                !- Terrain
  Yes;                                    !- Keep Site Location Information

OS:RunPeriodControl:DaylightSavingTime,
  {d8309d41-748d-405d-9df3-2434a3aac875}, !- Handle
  Mar 12,                                 !- Start Date
  Nov 5;                                  !- End Date

OS:Site:GroundTemperature:Shallow,
  {802780e5-ebcb-485a-bf21-3968e6e84703}, !- Handle
  4.30207395723828,                       !- January Surface Ground Temperature {C}
  2.29327249652502,                       !- February Surface Ground Temperature {C}
  2.13240047156047,                       !- March Surface Ground Temperature {C}
  3.08567940719286,                       !- April Surface Ground Temperature {C}
  6.91256312497526,                       !- May Surface Ground Temperature {C}
  10.7216195949507,                       !- June Surface Ground Temperature {C}
  14.0238679822574,                       !- July Surface Ground Temperature {C}
  16.1157611184724,                       !- August Surface Ground Temperature {C}
  16.2934789303462,                       !- September Surface Ground Temperature {C}
  14.5920754632847,                       !- October Surface Ground Temperature {C}
  11.374036348653,                        !- November Surface Ground Temperature {C}
  7.68182621661674;                       !- December Surface Ground Temperature {C}

OS:ThermalZone,
  {31702a5e-bbb1-4dac-b111-5626fb72a710}, !- Handle
  conditioned space,                      !- Name
  1,                                      !- Multiplier
  ,                                       !- Ceiling Height {m}
  346.03186535424,                        !- Volume {m3}
  ,                                       !- Floor Area {m2}
  ,                                       !- Zone Inside Convection Algorithm
  ,                                       !- Zone Outside Convection Algorithm
  ,                                       !- Zone Conditioning Equipment List Name
  {26759e9d-0b3b-4da7-9ff1-e923eeb76f39}, !- Zone Air Inlet Port List
  {5ac9ce3d-19d8-4f98-b429-84a3b0d9dd80}, !- Zone Air Exhaust Port List
  {31dda005-30cd-480b-a1b6-995104e59843}, !- Zone Air Node Name
  {dc502313-e366-4006-a060-414101c63616}, !- Zone Return Air Port List
  ,                                       !- Primary Daylighting Control Name
  ,                                       !- Fraction of Zone Controlled by Primary Daylighting Control
  ,                                       !- Secondary Daylighting Control Name
  ,                                       !- Fraction of Zone Controlled by Secondary Daylighting Control
  ,                                       !- Illuminance Map Name
  ,                                       !- Group Rendering Name
  {a9248a9c-7dab-40e8-9100-498ed0af4aaa}, !- Thermostat Name
  No;                                     !- Use Ideal Air Loads

OS:Node,
  {9910fc68-f9e9-487e-a3e2-806148d79ac6}, !- Handle
  Node 1,                                 !- Name
  {31dda005-30cd-480b-a1b6-995104e59843}, !- Inlet Port
  ;                                       !- Outlet Port

OS:Connection,
  {31dda005-30cd-480b-a1b6-995104e59843}, !- Handle
  {31702a5e-bbb1-4dac-b111-5626fb72a710}, !- Source Object
  11,                                     !- Outlet Port
  {9910fc68-f9e9-487e-a3e2-806148d79ac6}, !- Target Object
  2;                                      !- Inlet Port

OS:PortList,
  {26759e9d-0b3b-4da7-9ff1-e923eeb76f39}, !- Handle
  {31702a5e-bbb1-4dac-b111-5626fb72a710}, !- HVAC Component
  {4580f709-5a73-4279-bbe3-3793b7455e2e}; !- Port 1

OS:PortList,
  {5ac9ce3d-19d8-4f98-b429-84a3b0d9dd80}, !- Handle
  {31702a5e-bbb1-4dac-b111-5626fb72a710}; !- HVAC Component

OS:PortList,
  {dc502313-e366-4006-a060-414101c63616}, !- Handle
  {31702a5e-bbb1-4dac-b111-5626fb72a710}, !- HVAC Component
  {4f48ed97-957b-458e-9913-67df16a9a966}; !- Port 1

OS:Sizing:Zone,
  {c4068392-3552-4685-986c-3ef350400caa}, !- Handle
  {31702a5e-bbb1-4dac-b111-5626fb72a710}, !- Zone or ZoneList Name
  SupplyAirTemperature,                   !- Zone Cooling Design Supply Air Temperature Input Method
  14,                                     !- Zone Cooling Design Supply Air Temperature {C}
  11.11,                                  !- Zone Cooling Design Supply Air Temperature Difference {deltaC}
  SupplyAirTemperature,                   !- Zone Heating Design Supply Air Temperature Input Method
  40,                                     !- Zone Heating Design Supply Air Temperature {C}
  11.11,                                  !- Zone Heating Design Supply Air Temperature Difference {deltaC}
  0.0085,                                 !- Zone Cooling Design Supply Air Humidity Ratio {kg-H2O/kg-air}
  0.008,                                  !- Zone Heating Design Supply Air Humidity Ratio {kg-H2O/kg-air}
  ,                                       !- Zone Heating Sizing Factor
  ,                                       !- Zone Cooling Sizing Factor
  DesignDay,                              !- Cooling Design Air Flow Method
  ,                                       !- Cooling Design Air Flow Rate {m3/s}
  ,                                       !- Cooling Minimum Air Flow per Zone Floor Area {m3/s-m2}
  ,                                       !- Cooling Minimum Air Flow {m3/s}
  ,                                       !- Cooling Minimum Air Flow Fraction
  DesignDay,                              !- Heating Design Air Flow Method
  ,                                       !- Heating Design Air Flow Rate {m3/s}
  ,                                       !- Heating Maximum Air Flow per Zone Floor Area {m3/s-m2}
  ,                                       !- Heating Maximum Air Flow {m3/s}
  ,                                       !- Heating Maximum Air Flow Fraction
  No,                                     !- Account for Dedicated Outdoor Air System
  NeutralSupplyAir,                       !- Dedicated Outdoor Air System Control Strategy
  autosize,                               !- Dedicated Outdoor Air Low Setpoint Temperature for Design {C}
  autosize,                               !- Dedicated Outdoor Air High Setpoint Temperature for Design {C}
  Sensible Load Only No Latent Load,      !- Zone Load Sizing Method
  HumidityRatioDifference,                !- Zone Latent Cooling Design Supply Air Humidity Ratio Input Method
  ,                                       !- Zone Dehumidification Design Supply Air Humidity Ratio {kgWater/kgDryAir}
  0.005,                                  !- Zone Cooling Design Supply Air Humidity Ratio Difference {kgWater/kgDryAir}
  HumidityRatioDifference,                !- Zone Latent Heating Design Supply Air Humidity Ratio Input Method
  ,                                       !- Zone Humidification Design Supply Air Humidity Ratio {kgWater/kgDryAir}
  0.005,                                  !- Zone Humidification Design Supply Air Humidity Ratio Difference {kgWater/kgDryAir}
  ,                                       !- Zone Humidistat Dehumidification Set Point Schedule Name
  ,                                       !- Zone Humidistat Humidification Set Point Schedule Name
  ,                                       !- Design Zone Air Distribution Effectiveness in Cooling Mode
  ,                                       !- Design Zone Air Distribution Effectiveness in Heating Mode
  ,                                       !- Design Zone Secondary Recirculation Fraction {dimensionless}
  ,                                       !- Design Minimum Zone Ventilation Efficiency {dimensionless}
  Coincident;                             !- Sizing Option

OS:ZoneHVAC:EquipmentList,
  {d63e5af0-e439-429f-8f35-2edff5b45787}, !- Handle
  Zone HVAC Equipment List 1,             !- Name
  {31702a5e-bbb1-4dac-b111-5626fb72a710}, !- Thermal Zone
  ,                                       !- Load Distribution Scheme
  {f3ae5b97-9243-4524-98fe-689ea82464a5}, !- Zone Equipment 1
  1,                                      !- Zone Equipment Cooling Sequence 1
  1,                                      !- Zone Equipment Heating or No-Load Sequence 1
  {5bfb4461-8638-477a-a983-bbef39ea3df2}, !- Zone Equipment Sequential Cooling Fraction Schedule Name 1
  {ce312ccc-4827-414b-b679-cb548c26fdb4}; !- Zone Equipment Sequential Heating Fraction Schedule Name 1

OS:AdditionalProperties,
  {a7c7506c-b1d0-4fe4-ab69-80ae9b3e9b26}, !- Handle
  {31702a5e-bbb1-4dac-b111-5626fb72a710}, !- Object Name
  ObjectType,                             !- Feature Name 1
  String,                                 !- Feature Data Type 1
  conditioned space;                      !- Feature Value 1

OS:Space,
  {8786e69f-abf0-4718-b5c0-10b529a81e7b}, !- Handle
  conditioned space 1,                    !- Name
  ,                                       !- Space Type Name
  ,                                       !- Default Construction Set Name
  ,                                       !- Default Schedule Set Name
  ,                                       !- Direction of Relative North {deg}
  ,                                       !- X Origin {m}
  ,                                       !- Y Origin {m}
  ,                                       !- Z Origin {m}
  ,                                       !- Building Story Name
  {31702a5e-bbb1-4dac-b111-5626fb72a710}, !- Thermal Zone Name
  ,                                       !- Part of Total Floor Area
  ,                                       !- Design Specification Outdoor Air Object Name
  ,                                       !- Building Unit Name
  346.03186535424;                        !- Volume {m3}

OS:Schedule:Ruleset,
  {bf904c39-213d-481d-9d97-deadcda642ad}, !- Handle
  heating setpoint,                       !- Name
  {9986ff74-0668-4461-8a32-ed2026b7006f}, !- Schedule Type Limits Name
  {907ce89c-c3e0-4f2b-b0d3-b2e9365c1631}; !- Default Day Schedule Name

OS:Schedule:Day,
  {907ce89c-c3e0-4f2b-b0d3-b2e9365c1631}, !- Handle
  heating setpoint default day,           !- Name
  {9986ff74-0668-4461-8a32-ed2026b7006f}, !- Schedule Type Limits Name
  ,                                       !- Interpolate to Timestep
  24,                                     !- Hour 1
  0,                                      !- Minute 1
  0;                                      !- Value Until Time 1

OS:Schedule:Rule,
  {6027fa15-3f4b-47ab-bd30-ac4e09429f84}, !- Handle
  heating setpoint allday rule,           !- Name
  {bf904c39-213d-481d-9d97-deadcda642ad}, !- Schedule Ruleset Name
  0,                                      !- Rule Order
  {66b110b7-9120-4a10-ae0c-84f4444a4312}, !- Day Schedule Name
  Yes,                                    !- Apply Sunday
  Yes,                                    !- Apply Monday
  Yes,                                    !- Apply Tuesday
  Yes,                                    !- Apply Wednesday
  Yes,                                    !- Apply Thursday
  Yes,                                    !- Apply Friday
  Yes,                                    !- Apply Saturday
  DateRange,                              !- Date Specification Type
  1,                                      !- Start Month
  1,                                      !- Start Day
  12,                                     !- End Month
  31;                                     !- End Day

OS:Schedule:Day,
  {66b110b7-9120-4a10-ae0c-84f4444a4312}, !- Handle
  heating setpoint day,                   !- Name
  {9986ff74-0668-4461-8a32-ed2026b7006f}, !- Schedule Type Limits Name
  ,                                       !- Interpolate to Timestep
  24,                                     !- Hour 1
  0,                                      !- Minute 1
  20;                                     !- Value Until Time 1

OS:Schedule:Ruleset,
  {cc63809a-76d6-4235-8697-687ced3ca8c1}, !- Handle
  cooling setpoint,                       !- Name
  {9986ff74-0668-4461-8a32-ed2026b7006f}, !- Schedule Type Limits Name
  {ec3aaed7-8163-452c-bfa4-43896033ff15}; !- Default Day Schedule Name

OS:Schedule:Day,
  {ec3aaed7-8163-452c-bfa4-43896033ff15}, !- Handle
  cooling setpoint default day,           !- Name
  {9986ff74-0668-4461-8a32-ed2026b7006f}, !- Schedule Type Limits Name
  ,                                       !- Interpolate to Timestep
  24,                                     !- Hour 1
  0,                                      !- Minute 1
  0;                                      !- Value Until Time 1

OS:Schedule:Rule,
  {c411dd13-565f-4b50-93ca-22db6b2f4e36}, !- Handle
  cooling setpoint allday rule,           !- Name
  {cc63809a-76d6-4235-8697-687ced3ca8c1}, !- Schedule Ruleset Name
  0,                                      !- Rule Order
  {6809cc39-3a59-4c9f-9547-b1bfe503b4f3}, !- Day Schedule Name
  Yes,                                    !- Apply Sunday
  Yes,                                    !- Apply Monday
  Yes,                                    !- Apply Tuesday
  Yes,                                    !- Apply Wednesday
  Yes,                                    !- Apply Thursday
  Yes,                                    !- Apply Friday
  Yes,                                    !- Apply Saturday
  DateRange,                              !- Date Specification Type
  1,                                      !- Start Month
  1,                                      !- Start Day
  12,                                     !- End Month
  31;                                     !- End Day

OS:Schedule:Day,
  {6809cc39-3a59-4c9f-9547-b1bfe503b4f3}, !- Handle
  cooling setpoint day,                   !- Name
  {9986ff74-0668-4461-8a32-ed2026b7006f}, !- Schedule Type Limits Name
  ,                                       !- Interpolate to Timestep
  24,                                     !- Hour 1
  0,                                      !- Minute 1
  25.5555555555556;                       !- Value Until Time 1

OS:ThermostatSetpoint:DualSetpoint,
  {a9248a9c-7dab-40e8-9100-498ed0af4aaa}, !- Handle
  conditioned space temperature setpoint, !- Name
  {bf904c39-213d-481d-9d97-deadcda642ad}, !- Heating Setpoint Temperature Schedule Name
  {cc63809a-76d6-4235-8697-687ced3ca8c1}, !- Cooling Setpoint Temperature Schedule Name
  0;                                      !- Temperature Difference Between Cutout And Setpoint {deltaC}

OS:ScheduleTypeLimits,
  {9986ff74-0668-4461-8a32-ed2026b7006f}, !- Handle
  Temperature,                            !- Name
  ,                                       !- Lower Limit Value
  ,                                       !- Upper Limit Value
  Continuous,                             !- Numeric Type
  Temperature;                            !- Unit Type

OS:Surface,
  {f626322b-3173-4d78-946e-7ec2cfac85ae}, !- Handle
  Roof1,                                  !- Name
  RoofCeiling,                            !- Surface Type
  {b5c28922-31ab-4707-a6f3-3867d4908d05}, !- Construction Name
  {21459be0-f8c7-4022-be97-223b2e8fca89}, !- Space Name
  Outdoors,                               !- Outside Boundary Condition
  ,                                       !- Outside Boundary Condition Object
  SunExposed,                             !- Sun Exposure
  WindExposed,                            !- Wind Exposure
  ,                                       !- View Factor to Ground
  ,                                       !- Number of Vertices
  1.41860524590607, 10.3253389825797, 2.4384, !- X,Y,Z Vertex 1 {m}
  1.41860524590607, 2.35891414550252, 6.42161241853859, !- X,Y,Z Vertex 2 {m}
  10.3253389825797, 2.35891414550251, 6.42161241853859, !- X,Y,Z Vertex 3 {m}
  10.3253389825797, 10.3253389825797, 2.4384; !- X,Y,Z Vertex 4 {m}

OS:AdditionalProperties,
  {d20de93c-fd50-4f84-b60b-c252529244ce}, !- Handle
  {f626322b-3173-4d78-946e-7ec2cfac85ae}, !- Object Name
  Length,                                 !- Feature Name 1
  Double,                                 !- Feature Data Type 1
  29.221567377538118,                     !- Feature Value 1
  Width,                                  !- Feature Name 2
  Double,                                 !- Feature Data Type 2
  29.221567377538118,                     !- Feature Value 2
  Azimuth,                                !- Feature Name 3
  Integer,                                !- Feature Data Type 3
  0,                                      !- Feature Value 3
  Tilt,                                   !- Feature Name 4
  Double,                                 !- Feature Data Type 4
  0.5,                                    !- Feature Value 4
  SurfaceType,                            !- Feature Name 5
  String,                                 !- Feature Data Type 5
  Roof;                                   !- Feature Value 5

OS:ThermalZone,
  {6da30e8f-1ede-408d-9d20-8075b6ab53a1}, !- Handle
  attic - vented,                         !- Name
  1,                                      !- Multiplier
  ,                                       !- Ceiling Height {m}
  126.003218814318,                       !- Volume {m3}
  ,                                       !- Floor Area {m2}
  ,                                       !- Zone Inside Convection Algorithm
  ,                                       !- Zone Outside Convection Algorithm
  ,                                       !- Zone Conditioning Equipment List Name
  {6333d61f-9d48-488d-bb89-9cba1eb707c4}, !- Zone Air Inlet Port List
  {7ada675e-0655-4942-a40b-b185a04b7b21}, !- Zone Air Exhaust Port List
  {a051c9af-9cfc-455f-96f6-f8d4506e124a}, !- Zone Air Node Name
  {b030c1a7-e9a1-40b8-80ea-1d7741c5ef60}, !- Zone Return Air Port List
  ,                                       !- Primary Daylighting Control Name
  ,                                       !- Fraction of Zone Controlled by Primary Daylighting Control
  ,                                       !- Secondary Daylighting Control Name
  ,                                       !- Fraction of Zone Controlled by Secondary Daylighting Control
  ,                                       !- Illuminance Map Name
  ,                                       !- Group Rendering Name
  ,                                       !- Thermostat Name
  No;                                     !- Use Ideal Air Loads

OS:Node,
  {aa1f20a6-e4a5-43de-ad37-5dd98a13b251}, !- Handle
  Node 2,                                 !- Name
  {a051c9af-9cfc-455f-96f6-f8d4506e124a}, !- Inlet Port
  ;                                       !- Outlet Port

OS:Connection,
  {a051c9af-9cfc-455f-96f6-f8d4506e124a}, !- Handle
  {6da30e8f-1ede-408d-9d20-8075b6ab53a1}, !- Source Object
  11,                                     !- Outlet Port
  {aa1f20a6-e4a5-43de-ad37-5dd98a13b251}, !- Target Object
  2;                                      !- Inlet Port

OS:PortList,
  {6333d61f-9d48-488d-bb89-9cba1eb707c4}, !- Handle
  {6da30e8f-1ede-408d-9d20-8075b6ab53a1}; !- HVAC Component

OS:PortList,
  {7ada675e-0655-4942-a40b-b185a04b7b21}, !- Handle
  {6da30e8f-1ede-408d-9d20-8075b6ab53a1}; !- HVAC Component

OS:PortList,
  {b030c1a7-e9a1-40b8-80ea-1d7741c5ef60}, !- Handle
  {6da30e8f-1ede-408d-9d20-8075b6ab53a1}; !- HVAC Component

OS:Sizing:Zone,
  {a2239a8e-86a6-4ede-9348-7e3d41929909}, !- Handle
  {6da30e8f-1ede-408d-9d20-8075b6ab53a1}, !- Zone or ZoneList Name
  SupplyAirTemperature,                   !- Zone Cooling Design Supply Air Temperature Input Method
  14,                                     !- Zone Cooling Design Supply Air Temperature {C}
  11.11,                                  !- Zone Cooling Design Supply Air Temperature Difference {deltaC}
  SupplyAirTemperature,                   !- Zone Heating Design Supply Air Temperature Input Method
  40,                                     !- Zone Heating Design Supply Air Temperature {C}
  11.11,                                  !- Zone Heating Design Supply Air Temperature Difference {deltaC}
  0.0085,                                 !- Zone Cooling Design Supply Air Humidity Ratio {kg-H2O/kg-air}
  0.008,                                  !- Zone Heating Design Supply Air Humidity Ratio {kg-H2O/kg-air}
  ,                                       !- Zone Heating Sizing Factor
  ,                                       !- Zone Cooling Sizing Factor
  DesignDay,                              !- Cooling Design Air Flow Method
  ,                                       !- Cooling Design Air Flow Rate {m3/s}
  ,                                       !- Cooling Minimum Air Flow per Zone Floor Area {m3/s-m2}
  ,                                       !- Cooling Minimum Air Flow {m3/s}
  ,                                       !- Cooling Minimum Air Flow Fraction
  DesignDay,                              !- Heating Design Air Flow Method
  ,                                       !- Heating Design Air Flow Rate {m3/s}
  ,                                       !- Heating Maximum Air Flow per Zone Floor Area {m3/s-m2}
  ,                                       !- Heating Maximum Air Flow {m3/s}
  ,                                       !- Heating Maximum Air Flow Fraction
  No,                                     !- Account for Dedicated Outdoor Air System
  NeutralSupplyAir,                       !- Dedicated Outdoor Air System Control Strategy
  autosize,                               !- Dedicated Outdoor Air Low Setpoint Temperature for Design {C}
  autosize,                               !- Dedicated Outdoor Air High Setpoint Temperature for Design {C}
  Sensible Load Only No Latent Load,      !- Zone Load Sizing Method
  HumidityRatioDifference,                !- Zone Latent Cooling Design Supply Air Humidity Ratio Input Method
  ,                                       !- Zone Dehumidification Design Supply Air Humidity Ratio {kgWater/kgDryAir}
  0.005,                                  !- Zone Cooling Design Supply Air Humidity Ratio Difference {kgWater/kgDryAir}
  HumidityRatioDifference,                !- Zone Latent Heating Design Supply Air Humidity Ratio Input Method
  ,                                       !- Zone Humidification Design Supply Air Humidity Ratio {kgWater/kgDryAir}
  0.005,                                  !- Zone Humidification Design Supply Air Humidity Ratio Difference {kgWater/kgDryAir}
  ,                                       !- Zone Humidistat Dehumidification Set Point Schedule Name
  ,                                       !- Zone Humidistat Humidification Set Point Schedule Name
  ,                                       !- Design Zone Air Distribution Effectiveness in Cooling Mode
  ,                                       !- Design Zone Air Distribution Effectiveness in Heating Mode
  ,                                       !- Design Zone Secondary Recirculation Fraction {dimensionless}
  ,                                       !- Design Minimum Zone Ventilation Efficiency {dimensionless}
  Coincident;                             !- Sizing Option

OS:ZoneHVAC:EquipmentList,
  {ebf4d056-c30d-4d14-b2a7-427495858e6e}, !- Handle
  Zone HVAC Equipment List 2,             !- Name
  {6da30e8f-1ede-408d-9d20-8075b6ab53a1}; !- Thermal Zone

OS:AdditionalProperties,
  {483bec03-64f5-4c0a-a5d2-c2f4b7c9b81a}, !- Handle
  {6da30e8f-1ede-408d-9d20-8075b6ab53a1}, !- Object Name
  ObjectType,                             !- Feature Name 1
  String,                                 !- Feature Data Type 1
  attic - vented;                         !- Feature Value 1

OS:Space,
  {21459be0-f8c7-4022-be97-223b2e8fca89}, !- Handle
  attic - vented 1,                       !- Name
  ,                                       !- Space Type Name
  ,                                       !- Default Construction Set Name
  ,                                       !- Default Schedule Set Name
  ,                                       !- Direction of Relative North {deg}
  ,                                       !- X Origin {m}
  ,                                       !- Y Origin {m}
  ,                                       !- Z Origin {m}
  ,                                       !- Building Story Name
  {6da30e8f-1ede-408d-9d20-8075b6ab53a1}, !- Thermal Zone Name
  ,                                       !- Part of Total Floor Area
  ,                                       !- Design Specification Outdoor Air Object Name
  ,                                       !- Building Unit Name
  126.003218814318;                       !- Volume {m3}

OS:Material,
  {04ffa395-cb29-4715-80ed-58d5ae783b03}, !- Handle
  asphalt or fiberglass shingles,         !- Name
  Rough,                                  !- Roughness
  0.00635,                                !- Thickness {m}
  0.162714,                               !- Conductivity {W/m-K}
  1121.4,                                 !- Density {kg/m3}
  1465.45,                                !- Specific Heat {J/kg-K}
  0.9,                                    !- Thermal Absorptance
  0.85,                                   !- Solar Absorptance