
OS:Version,
  {f7126773-6ebb-4dd9-a6be-46bed1892173}, !- Handle
  3.9.0;                                  !- Version Identifier

OS:SimulationControl,
  {08353f64-6f2c-48d9-af7a-c7b520028e98}, !- Handle
  ,                                       !- Do Zone Sizing Calculation
  ,                                       !- Do System Sizing Calculation
  ,                                       !- Do Plant Sizing Calculation
  No;                                     !- Run Simulation for Sizing Periods

OS:Timestep,
  {d6feeaee-8a9e-4e7d-a44c-35182ab5961e}, !- Handle
  1;                                      !- Number of Timesteps per Hour

OS:ShadowCalculation,
  {360c96b2-a3cb-479b-8e87-662c2de3502e}, !- Handle
  PolygonClipping,                        !- Shading Calculation Method
  ,                                       !- Shading Calculation Update Frequency Method
  20,                                     !- Shading Calculation Update Frequency
  200,                                    !- Maximum Figures in Shadow Overlap Calculations
  ,                                       !- Polygon Clipping Algorithm
  512,                                    !- Pixel Counting Resolution
  ,                                       !- Sky Diffuse Modeling Algorithm
  No,                                     !- Output External Shading Calculation Results
  No,                                     !- Disable Self-Shading Within Shading Zone Groups
  No;                                     !- Disable Self-Shading From Shading Zone Groups to Other Zones

OS:SurfaceConvectionAlgorithm:Outside,
  {62c8a9a9-5a05-451b-8a84-9a15aa43d32a}, !- Handle
  DOE-2;                                  !- Algorithm

OS:SurfaceConvectionAlgorithm:Inside,
  {d58b6787-9371-495e-b88b-291dae5d6bc7}, !- Handle
  TARP;                                   !- Algorithm

OS:ZoneCapacitanceMultiplier:ResearchSpecial,
  {208c71e6-943a-452f-83a7-5c1bd822ce0e}, !- Handle
  7,                                      !- Temperature Capacity Multiplier
  15,                                     !- Humidity Capacity Multiplier
  ;                                       !- Carbon Dioxide Capacity Multiplier

OS:ConvergenceLimits,
  {0f28d750-796d-4f28-a53a-64e6ad20f34c}, !- Handle
  0;                                      !- Minimum System Timestep {minutes}

OS:RunPeriod,
  {6b51bbc4-1b2c-4c57-b5ce-8d79157b9924}, !- Handle
  Run Period 1,                           !- Name
  1,                                      !- Begin Month
  1,                                      !- Begin Day of Month
  12,                                     !- End Month
  31,                                     !- End Day of Month
  ,                                       !- Use Weather File Holidays and Special Days
  ,                                       !- Use Weather File Daylight Saving Period
  ,                                       !- Apply Weekend Holiday Rule
  ,                                       !- Use Weather File Rain Indicators
  ,                                       !- Use Weather File Snow Indicators
  ;                                       !- Number of Times Runperiod to be Repeated

OS:PerformancePrecisionTradeoffs,
  {3f835093-04fe-44dc-b361-820320797dff}, !- Handle
  ,                                       !- Use Coil Direct Solutions
  CarrollMRT;                             !- Zone Radiant Exchange Algorithm

OS:WeatherFile,
  {a60ca74f-e472-4910-88f2-37e23a46bb88}, !- Handle
  Buffalo Niagara Intl Ap,                !- City
  NY,                                     !- State Province Region
  USA,                                    !- Country
  TMY3,                                   !- Data Source
  725280,                                 !- WMO Number
  42.93,                                  !- Latitude {deg}
  -78.73,                                 !- Longitude {deg}
  -5,                                     !- Time Zone {hr}
  215,                                    !- Elevation {m}
  /Users/nmoore/github/urbanopt-example-geojson-project/example_project/weather/USA_NY_Buffalo-Greater.Buffalo.Intl.AP.725280_TMY3.epw, !- Url
  6B50E0FF,                               !- Checksum
  ,                                       !- Start Date Actual Year
  Sunday;                                 !- Start Day of Week

OS:YearDescription,
  {934ccce7-ac00-4648-8a46-2c2fc49361e9}, !- Handle
  2007,                                   !- Calendar Year
  ,                                       !- Day of Week for Start Day
  ;                                       !- Is Leap Year

OS:Site,
  {326259d9-2cfc-4f48-94c9-4d318c74ce76}, !- Handle
  Buffalo Niagara Intl Ap_NY,             !- Name
  42.93,                                  !- Latitude {deg}
  -78.73,                                 !- Longitude {deg}
  -5,                                     !- Time Zone {hr}
  215,                                    !- Elevation {m}
  Suburbs,                                !- Terrain
  Yes;                                    !- Keep Site Location Information

OS:RunPeriodControl:DaylightSavingTime,
  {5b69ba2e-3278-4a6b-99dd-6cf41a331e35}, !- Handle
  Mar 12,                                 !- Start Date
  Nov 5;                                  !- End Date

OS:Site:GroundTemperature:Shallow,
  {e2164a3c-3c3d-4b52-a2b0-d3cba591bbe4}, !- Handle
  4.30207395723828,                       !- January Surface Ground Temperature {C}
  2.29327249652502,                       !- February Surface Ground Temperature {C}
  2.13240047156047,                       !- March Surface Ground Temperature {C}
  3.08567940719286,                       !- April Surface Ground Temperature {C}
  6.91256312497526,                       !- May Surface Ground Temperature {C}
  10.7216195949507,                       !- June Surface Ground Temperature {C}
  14.0238679822574,                       !- July Surface Ground Temperature {C}
  16.1157611184724,                       !- August Surface Ground Temperature {C}
  16.2934789303462,                       !- September Surface Ground Temperature {C}
  14.5920754632847,                       !- October Surface Ground Temperature {C}
  11.374036348653,                        !- November Surface Ground Temperature {C}
  7.68182621661674;                       !- December Surface Ground Temperature {C}

OS:ThermalZone,
  {3df9fbaa-548f-4712-b7a3-5e7523b7435b}, !- Handle
  conditioned space,                      !- Name
  1,                                      !- Multiplier
  ,                                       !- Ceiling Height {m}
  346.03186535424,                        !- Volume {m3}
  ,                                       !- Floor Area {m2}
  ,                                       !- Zone Inside Convection Algorithm
  ,                                       !- Zone Outside Convection Algorithm
  ,                                       !- Zone Conditioning Equipment List Name
  {86ea9ac3-14bd-4a92-b373-a124ddd0544e}, !- Zone Air Inlet Port List
  {a5e52070-a811-4459-b33d-cac3077e5e56}, !- Zone Air Exhaust Port List
  {07344d2c-c34c-466e-9977-e194d59a1f46}, !- Zone Air Node Name
  {9dfc725a-693f-4241-b66a-a8307362a14f}, !- Zone Return Air Port List
  ,                                       !- Primary Daylighting Control Name
  ,                                       !- Fraction of Zone Controlled by Primary Daylighting Control
  ,                                       !- Secondary Daylighting Control Name
  ,                                       !- Fraction of Zone Controlled by Secondary Daylighting Control
  ,                                       !- Illuminance Map Name
  ,                                       !- Group Rendering Name
  {d4e68117-8f89-468c-b05e-97e79d43b0a7}, !- Thermostat Name
  No;                                     !- Use Ideal Air Loads

OS:Node,
  {e550bfd3-6497-4de7-873a-59da6a83279f}, !- Handle
  Node 1,                                 !- Name
  {07344d2c-c34c-466e-9977-e194d59a1f46}, !- Inlet Port
  ;                                       !- Outlet Port

OS:Connection,
  {07344d2c-c34c-466e-9977-e194d59a1f46}, !- Handle
  {3df9fbaa-548f-4712-b7a3-5e7523b7435b}, !- Source Object
  11,                                     !- Outlet Port
  {e550bfd3-6497-4de7-873a-59da6a83279f}, !- Target Object
  2;                                      !- Inlet Port

OS:PortList,
  {86ea9ac3-14bd-4a92-b373-a124ddd0544e}, !- Handle
  {3df9fbaa-548f-4712-b7a3-5e7523b7435b}, !- HVAC Component
  {ce437c10-300c-4a00-ae4f-e443f4886987}; !- Port 1

OS:PortList,
  {a5e52070-a811-4459-b33d-cac3077e5e56}, !- Handle
  {3df9fbaa-548f-4712-b7a3-5e7523b7435b}; !- HVAC Component

OS:PortList,
  {9dfc725a-693f-4241-b66a-a8307362a14f}, !- Handle
  {3df9fbaa-548f-4712-b7a3-5e7523b7435b}, !- HVAC Component
  {3087f27f-d030-4867-9b6b-0de6c24ed5e4}; !- Port 1

OS:Sizing:Zone,
  {5839bf82-2094-41e1-9514-dc7fc45d638a}, !- Handle
  {3df9fbaa-548f-4712-b7a3-5e7523b7435b}, !- Zone or ZoneList Name
  SupplyAirTemperature,                   !- Zone Cooling Design Supply Air Temperature Input Method
  14,                                     !- Zone Cooling Design Supply Air Temperature {C}
  11.11,                                  !- Zone Cooling Design Supply Air Temperature Difference {deltaC}
  SupplyAirTemperature,                   !- Zone Heating Design Supply Air Temperature Input Method
  40,                                     !- Zone Heating Design Supply Air Temperature {C}
  11.11,                                  !- Zone Heating Design Supply Air Temperature Difference {deltaC}
  0.0085,                                 !- Zone Cooling Design Supply Air Humidity Ratio {kg-H2O/kg-air}
  0.008,                                  !- Zone Heating Design Supply Air Humidity Ratio {kg-H2O/kg-air}
  ,                                       !- Zone Heating Sizing Factor
  ,                                       !- Zone Cooling Sizing Factor
  DesignDay,                              !- Cooling Design Air Flow Method
  ,                                       !- Cooling Design Air Flow Rate {m3/s}
  ,                                       !- Cooling Minimum Air Flow per Zone Floor Area {m3/s-m2}
  ,                                       !- Cooling Minimum Air Flow {m3/s}
  ,                                       !- Cooling Minimum Air Flow Fraction
  DesignDay,                              !- Heating Design Air Flow Method
  ,                                       !- Heating Design Air Flow Rate {m3/s}
  ,                                       !- Heating Maximum Air Flow per Zone Floor Area {m3/s-m2}
  ,                                       !- Heating Maximum Air Flow {m3/s}
  ,                                       !- Heating Maximum Air Flow Fraction
  No,                                     !- Account for Dedicated Outdoor Air System
  NeutralSupplyAir,                       !- Dedicated Outdoor Air System Control Strategy
  autosize,                               !- Dedicated Outdoor Air Low Setpoint Temperature for Design {C}
  autosize,                               !- Dedicated Outdoor Air High Setpoint Temperature for Design {C}
  Sensible Load Only No Latent Load,      !- Zone Load Sizing Method
  HumidityRatioDifference,                !- Zone Latent Cooling Design Supply Air Humidity Ratio Input Method
  ,                                       !- Zone Dehumidification Design Supply Air Humidity Ratio {kgWater/kgDryAir}
  0.005,                                  !- Zone Cooling Design Supply Air Humidity Ratio Difference {kgWater/kgDryAir}
  HumidityRatioDifference,                !- Zone Latent Heating Design Supply Air Humidity Ratio Input Method
  ,                                       !- Zone Humidification Design Supply Air Humidity Ratio {kgWater/kgDryAir}
  0.005,                                  !- Zone Humidification Design Supply Air Humidity Ratio Difference {kgWater/kgDryAir}
  ,                                       !- Zone Humidistat Dehumidification Set Point Schedule Name
  ,                                       !- Zone Humidistat Humidification Set Point Schedule Name
  ,                                       !- Design Zone Air Distribution Effectiveness in Cooling Mode
  ,                                       !- Design Zone Air Distribution Effectiveness in Heating Mode
  ,                                       !- Design Zone Secondary Recirculation Fraction {dimensionless}
  ,                                       !- Design Minimum Zone Ventilation Efficiency {dimensionless}
  Coincident;                             !- Sizing Option

OS:ZoneHVAC:EquipmentList,
  {78b97eec-c50a-4837-b497-53ad7d5d3307}, !- Handle
  Zone HVAC Equipment List 1,             !- Name
  {3df9fbaa-548f-4712-b7a3-5e7523b7435b}, !- Thermal Zone
  ,                                       !- Load Distribution Scheme
  {df020897-c143-4983-8418-41c704370e7a}, !- Zone Equipment 1
  1,                                      !- Zone Equipment Cooling Sequence 1
  1,                                      !- Zone Equipment Heating or No-Load Sequence 1
  {a49c7389-9637-470d-81c0-809f5d2eba85}, !- Zone Equipment Sequential Cooling Fraction Schedule Name 1
  {bd386278-78e8-4e0b-9ac2-09a134958cbf}; !- Zone Equipment Sequential Heating Fraction Schedule Name 1

OS:AdditionalProperties,
  {be408935-d911-4260-8f49-c8bf69a6dd73}, !- Handle
  {3df9fbaa-548f-4712-b7a3-5e7523b7435b}, !- Object Name
  ObjectType,                             !- Feature Name 1
  String,                                 !- Feature Data Type 1
  conditioned space;                      !- Feature Value 1

OS:Space,
  {23d68f76-e803-4f59-b388-ef636c98eb4e}, !- Handle
  conditioned space 1,                    !- Name
  ,                                       !- Space Type Name
  ,                                       !- Default Construction Set Name
  ,                                       !- Default Schedule Set Name
  ,                                       !- Direction of Relative North {deg}
  ,                                       !- X Origin {m}
  ,                                       !- Y Origin {m}
  ,                                       !- Z Origin {m}
  ,                                       !- Building Story Name
  {3df9fbaa-548f-4712-b7a3-5e7523b7435b}, !- Thermal Zone Name
  ,                                       !- Part of Total Floor Area
  ,                                       !- Design Specification Outdoor Air Object Name
  ,                                       !- Building Unit Name
  346.03186535424;                        !- Volume {m3}

OS:Schedule:Ruleset,
  {c17991aa-d661-46bc-bb78-948cea042a11}, !- Handle
  heating setpoint,                       !- Name
  {098a0f1c-d10b-443b-8945-9434742ccc8d}, !- Schedule Type Limits Name
  {986b1634-c37c-4d1c-bb0b-9795f4717434}; !- Default Day Schedule Name

OS:Schedule:Day,
  {986b1634-c37c-4d1c-bb0b-9795f4717434}, !- Handle
  heating setpoint default day,           !- Name
  {098a0f1c-d10b-443b-8945-9434742ccc8d}, !- Schedule Type Limits Name
  ,                                       !- Interpolate to Timestep
  24,                                     !- Hour 1
  0,                                      !- Minute 1
  0;                                      !- Value Until Time 1

OS:Schedule:Rule,
  {baf4d4b3-005f-4133-be1c-3e6af3fd6eb9}, !- Handle
  heating setpoint allday rule,           !- Name
  {c17991aa-d661-46bc-bb78-948cea042a11}, !- Schedule Ruleset Name
  0,                                      !- Rule Order
  {dfa928ed-2566-4cea-a773-8a54f0edb052}, !- Day Schedule Name
  Yes,                                    !- Apply Sunday
  Yes,                                    !- Apply Monday
  Yes,                                    !- Apply Tuesday
  Yes,                                    !- Apply Wednesday
  Yes,                                    !- Apply Thursday
  Yes,                                    !- Apply Friday
  Yes,                                    !- Apply Saturday
  DateRange,                              !- Date Specification Type
  1,                                      !- Start Month
  1,                                      !- Start Day
  12,                                     !- End Month
  31;                                     !- End Day

OS:Schedule:Day,
  {dfa928ed-2566-4cea-a773-8a54f0edb052}, !- Handle
  heating setpoint day,                   !- Name
  {098a0f1c-d10b-443b-8945-9434742ccc8d}, !- Schedule Type Limits Name
  ,                                       !- Interpolate to Timestep
  24,                                     !- Hour 1
  0,                                      !- Minute 1
  20;                                     !- Value Until Time 1

OS:Schedule:Ruleset,
  {a8fbeae9-9251-4dbf-b2f9-265949c45498}, !- Handle
  cooling setpoint,                       !- Name
  {098a0f1c-d10b-443b-8945-9434742ccc8d}, !- Schedule Type Limits Name
  {18c9c6fe-a184-49a4-bacf-a3d0c6c52b6e}; !- Default Day Schedule Name

OS:Schedule:Day,
  {18c9c6fe-a184-49a4-bacf-a3d0c6c52b6e}, !- Handle
  cooling setpoint default day,           !- Name
  {098a0f1c-d10b-443b-8945-9434742ccc8d}, !- Schedule Type Limits Name
  ,                                       !- Interpolate to Timestep
  24,                                     !- Hour 1
  0,                                      !- Minute 1
  0;                                      !- Value Until Time 1

OS:Schedule:Rule,
  {8260643b-a8a2-468a-92f5-ba424b07c671}, !- Handle
  cooling setpoint allday rule,           !- Name
  {a8fbeae9-9251-4dbf-b2f9-265949c45498}, !- Schedule Ruleset Name
  0,                                      !- Rule Order
  {35146c7b-991f-48b4-b3cc-d31fb6c0d0e2}, !- Day Schedule Name
  Yes,                                    !- Apply Sunday
  Yes,                                    !- Apply Monday
  Yes,                                    !- Apply Tuesday
  Yes,                                    !- Apply Wednesday
  Yes,                                    !- Apply Thursday
  Yes,                                    !- Apply Friday
  Yes,                                    !- Apply Saturday
  DateRange,                              !- Date Specification Type
  1,                                      !- Start Month
  1,                                      !- Start Day
  12,                                     !- End Month
  31;                                     !- End Day

OS:Schedule:Day,
  {35146c7b-991f-48b4-b3cc-d31fb6c0d0e2}, !- Handle
  cooling setpoint day,                   !- Name
  {098a0f1c-d10b-443b-8945-9434742ccc8d}, !- Schedule Type Limits Name
  ,                                       !- Interpolate to Timestep
  24,                                     !- Hour 1
  0,                                      !- Minute 1
  25.5555555555556;                       !- Value Until Time 1

OS:ThermostatSetpoint:DualSetpoint,
  {d4e68117-8f89-468c-b05e-97e79d43b0a7}, !- Handle
  conditioned space temperature setpoint, !- Name
  {c17991aa-d661-46bc-bb78-948cea042a11}, !- Heating Setpoint Temperature Schedule Name
  {a8fbeae9-9251-4dbf-b2f9-265949c45498}, !- Cooling Setpoint Temperature Schedule Name
  0;                                      !- Temperature Difference Between Cutout And Setpoint {deltaC}

OS:ScheduleTypeLimits,
  {098a0f1c-d10b-443b-8945-9434742ccc8d}, !- Handle
  Temperature,                            !- Name
  ,                                       !- Lower Limit Value
  ,                                       !- Upper Limit Value
  Continuous,                             !- Numeric Type
  Temperature;                            !- Unit Type

OS:Surface,
  {e235fe99-9f48-40c5-a666-d717327545c1}, !- Handle
  Roof1,                                  !- Name
  RoofCeiling,                            !- Surface Type
  {7e775ff0-4af1-4357-861e-59ca076bb58b}, !- Construction Name
  {7443549b-fd8f-4812-93c6-3a9b78b7c9a3}, !- Space Name
  Outdoors,                               !- Outside Boundary Condition
  ,                                       !- Outside Boundary Condition Object
  SunExposed,                             !- Sun Exposure
  WindExposed,                            !- Wind Exposure
  ,                                       !- View Factor to Ground
  ,                                       !- Number of Vertices
  1.41860524590607, 10.3253389825797, 2.4384, !- X,Y,Z Vertex 1 {m}
  1.41860524590607, 2.35891414550252, 6.42161241853859, !- X,Y,Z Vertex 2 {m}
  10.3253389825797, 2.35891414550251, 6.42161241853859, !- X,Y,Z Vertex 3 {m}
  10.3253389825797, 10.3253389825797, 2.4384; !- X,Y,Z Vertex 4 {m}

OS:AdditionalProperties,
  {1006e9fd-9858-4b77-b87a-42eed145ca7b}, !- Handle
  {e235fe99-9f48-40c5-a666-d717327545c1}, !- Object Name
  Length,                                 !- Feature Name 1
  Double,                                 !- Feature Data Type 1
  29.221567377538118,                     !- Feature Value 1
  Width,                                  !- Feature Name 2
  Double,                                 !- Feature Data Type 2
  29.221567377538118,                     !- Feature Value 2
  Azimuth,                                !- Feature Name 3
  Integer,                                !- Feature Data Type 3
  0,                                      !- Feature Value 3
  Tilt,                                   !- Feature Name 4
  Double,                                 !- Feature Data Type 4
  0.5,                                    !- Feature Value 4
  SurfaceType,                            !- Feature Name 5
  String,                                 !- Feature Data Type 5
  Roof;                                   !- Feature Value 5

OS:ThermalZone,
  {bc66e42f-ccfd-40fc-a1fd-622b90f3c5ab}, !- Handle
  attic - vented,                         !- Name
  1,                                      !- Multiplier
  ,                                       !- Ceiling Height {m}
  126.002877704413,                       !- Volume {m3}
  ,                                       !- Floor Area {m2}
  ,                                       !- Zone Inside Convection Algorithm
  ,                                       !- Zone Outside Convection Algorithm
  ,                                       !- Zone Conditioning Equipment List Name
  {5928558c-2f66-4925-8b3d-d4a69354eeaf}, !- Zone Air Inlet Port List
  {b6da4e43-1b0a-4c2a-ac2d-f779d86b6232}, !- Zone Air Exhaust Port List
  {22ec2cbb-3a2b-48cd-b344-d75b7d715081}, !- Zone Air Node Name
  {36424998-38e7-49c4-8462-d532c2b64e77}, !- Zone Return Air Port List
  ,                                       !- Primary Daylighting Control Name
  ,                                       !- Fraction of Zone Controlled by Primary Daylighting Control
  ,                                       !- Secondary Daylighting Control Name
  ,                                       !- Fraction of Zone Controlled by Secondary Daylighting Control
  ,                                       !- Illuminance Map Name
  ,                                       !- Group Rendering Name
  ,                                       !- Thermostat Name
  No;                                     !- Use Ideal Air Loads

OS:Node,
  {c44bdce2-b74f-4320-a302-6fcaba68cba8}, !- Handle
  Node 2,                                 !- Name
  {22ec2cbb-3a2b-48cd-b344-d75b7d715081}, !- Inlet Port
  ;                                       !- Outlet Port

OS:Connection,
  {22ec2cbb-3a2b-48cd-b344-d75b7d715081}, !- Handle
  {bc66e42f-ccfd-40fc-a1fd-622b90f3c5ab}, !- Source Object
  11,                                     !- Outlet Port
  {c44bdce2-b74f-4320-a302-6fcaba68cba8}, !- Target Object
  2;                                      !- Inlet Port

OS:PortList,
  {5928558c-2f66-4925-8b3d-d4a69354eeaf}, !- Handle
  {bc66e42f-ccfd-40fc-a1fd-622b90f3c5ab}; !- HVAC Component

OS:PortList,
  {b6da4e43-1b0a-4c2a-ac2d-f779d86b6232}, !- Handle
  {bc66e42f-ccfd-40fc-a1fd-622b90f3c5ab}; !- HVAC Component

OS:PortList,
  {36424998-38e7-49c4-8462-d532c2b64e77}, !- Handle
  {bc66e42f-ccfd-40fc-a1fd-622b90f3c5ab}; !- HVAC Component

OS:Sizing:Zone,
  {4009bf92-a8f6-48ca-9490-dc164d6ea0f4}, !- Handle
  {bc66e42f-ccfd-40fc-a1fd-622b90f3c5ab}, !- Zone or ZoneList Name
  SupplyAirTemperature,                   !- Zone Cooling Design Supply Air Temperature Input Method
  14,                                     !- Zone Cooling Design Supply Air Temperature {C}
  11.11,                                  !- Zone Cooling Design Supply Air Temperature Difference {deltaC}
  SupplyAirTemperature,                   !- Zone Heating Design Supply Air Temperature Input Method
  40,                                     !- Zone Heating Design Supply Air Temperature {C}
  11.11,                                  !- Zone Heating Design Supply Air Temperature Difference {deltaC}
  0.0085,                                 !- Zone Cooling Design Supply Air Humidity Ratio {kg-H2O/kg-air}
  0.008,                                  !- Zone Heating Design Supply Air Humidity Ratio {kg-H2O/kg-air}
  ,                                       !- Zone Heating Sizing Factor
  ,                                       !- Zone Cooling Sizing Factor
  DesignDay,                              !- Cooling Design Air Flow Method
  ,                                       !- Cooling Design Air Flow Rate {m3/s}
  ,                                       !- Cooling Minimum Air Flow per Zone Floor Area {m3/s-m2}
  ,                                       !- Cooling Minimum Air Flow {m3/s}
  ,                                       !- Cooling Minimum Air Flow Fraction
  DesignDay,                              !- Heating Design Air Flow Method
  ,                                       !- Heating Design Air Flow Rate {m3/s}
  ,                                       !- Heating Maximum Air Flow per Zone Floor Area {m3/s-m2}
  ,                                       !- Heating Maximum Air Flow {m3/s}
  ,                                       !- Heating Maximum Air Flow Fraction
  No,                                     !- Account for Dedicated Outdoor Air System
  NeutralSupplyAir,                       !- Dedicated Outdoor Air System Control Strategy
  autosize,                               !- Dedicated Outdoor Air Low Setpoint Temperature for Design {C}
  autosize,                               !- Dedicated Outdoor Air High Setpoint Temperature for Design {C}
  Sensible Load Only No Latent Load,      !- Zone Load Sizing Method
  HumidityRatioDifference,                !- Zone Latent Cooling Design Supply Air Humidity Ratio Input Method
  ,                                       !- Zone Dehumidification Design Supply Air Humidity Ratio {kgWater/kgDryAir}
  0.005,                                  !- Zone Cooling Design Supply Air Humidity Ratio Difference {kgWater/kgDryAir}
  HumidityRatioDifference,                !- Zone Latent Heating Design Supply Air Humidity Ratio Input Method
  ,                                       !- Zone Humidification Design Supply Air Humidity Ratio {kgWater/kgDryAir}
  0.005,                                  !- Zone Humidification Design Supply Air Humidity Ratio Difference {kgWater/kgDryAir}
  ,                                       !- Zone Humidistat Dehumidification Set Point Schedule Name
  ,                                       !- Zone Humidistat Humidification Set Point Schedule Name
  ,                                       !- Design Zone Air Distribution Effectiveness in Cooling Mode
  ,                                       !- Design Zone Air Distribution Effectiveness in Heating Mode
  ,                                       !- Design Zone Secondary Recirculation Fraction {dimensionless}
  ,                                       !- Design Minimum Zone Ventilation Efficiency {dimensionless}
  Coincident;                             !- Sizing Option

OS:ZoneHVAC:EquipmentList,
  {a7183e82-9c7c-4428-a243-14cc041c0557}, !- Handle
  Zone HVAC Equipment List 2,             !- Name
  {bc66e42f-ccfd-40fc-a1fd-622b90f3c5ab}; !- Thermal Zone

OS:AdditionalProperties,
  {eba1bff1-cd8a-4ba3-aa08-60a928cbc3e6}, !- Handle
  {bc66e42f-ccfd-40fc-a1fd-622b90f3c5ab}, !- Object Name
  ObjectType,                             !- Feature Name 1
  String,                                 !- Feature Data Type 1
  attic - vented;                         !- Feature Value 1

OS:Space,
  {7443549b-fd8f-4812-93c6-3a9b78b7c9a3}, !- Handle
  attic - vented 1,                       !- Name
  ,                                       !- Space Type Name
  ,                                       !- Default Construction Set Name
  ,                                       !- Default Schedule Set Name
  ,                                       !- Direction of Relative North {deg}
  ,                                       !- X Origin {m}
  ,                                       !- Y Origin {m}
  ,                                       !- Z Origin {m}
  ,                                       !- Building Story Name
  {bc66e42f-ccfd-40fc-a1fd-622b90f3c5ab}, !- Thermal Zone Name
  ,                                       !- Part of Total Floor Area
  ,                                       !- Design Specification Outdoor Air Object Name
  ,                                       !- Building Unit Name
  126.002877704413;                       !- Volume {m3}

OS:Material,
  {1ec8e654-2f08-4871-961a-65155807a99a}, !- Handle
  asphalt or fiberglass shingles,         !- Name
  Rough,                                  !- Roughness
  0.00635,                                !- Thickness {m}
  0.162714,                               !- Conductivity {W/m-K}
  1121.4,                                 !- Density {kg/m3}
  1465.45,                                !- Specific Heat {J/kg-K}
  0.9,                                    !- Thermal Absorptance
  0.85,                                   !- Solar Absorptance