
OS:Version,
  {73ef8d5b-3056-4cf2-83b5-94b5d1189af3}, !- Handle
  3.9.0;                                  !- Version Identifier

OS:SimulationControl,
  {66339d8a-8f66-4a97-8e78-64c33e4ecc58}, !- Handle
  ,                                       !- Do Zone Sizing Calculation
  ,                                       !- Do System Sizing Calculation
  ,                                       !- Do Plant Sizing Calculation
  No;                                     !- Run Simulation for Sizing Periods

OS:Timestep,
  {6c574066-2652-472f-80be-93ad43cf05b7}, !- Handle
  1;                                      !- Number of Timesteps per Hour

OS:ShadowCalculation,
  {caa3ac71-ce2d-4542-93d2-b54cb765588f}, !- Handle
  PolygonClipping,                        !- Shading Calculation Method
  ,                                       !- Shading Calculation Update Frequency Method
  20,                                     !- Shading Calculation Update Frequency
  200,                                    !- Maximum Figures in Shadow Overlap Calculations
  ,                                       !- Polygon Clipping Algorithm
  512,                                    !- Pixel Counting Resolution
  ,                                       !- Sky Diffuse Modeling Algorithm
  No,                                     !- Output External Shading Calculation Results
  No,                                     !- Disable Self-Shading Within Shading Zone Groups
  No;                                     !- Disable Self-Shading From Shading Zone Groups to Other Zones

OS:SurfaceConvectionAlgorithm:Outside,
  {728097b4-0fd1-46df-9641-c9499a9140b9}, !- Handle
  DOE-2;                                  !- Algorithm

OS:SurfaceConvectionAlgorithm:Inside,
  {000b5810-f67e-401e-8d6a-576ac93e5dc5}, !- Handle
  TARP;                                   !- Algorithm

OS:ZoneCapacitanceMultiplier:ResearchSpecial,
  {fbaca370-6833-48aa-a9bf-0cc46f6e6a5a}, !- Handle
  7,                                      !- Temperature Capacity Multiplier
  15,                                     !- Humidity Capacity Multiplier
  ;                                       !- Carbon Dioxide Capacity Multiplier

OS:ConvergenceLimits,
  {53b5a089-e585-4774-aa23-d566b6ff439c}, !- Handle
  0;                                      !- Minimum System Timestep {minutes}

OS:RunPeriod,
  {90f24aba-008b-405e-bbfa-ab80c1f98711}, !- Handle
  Run Period 1,                           !- Name
  1,                                      !- Begin Month
  1,                                      !- Begin Day of Month
  12,                                     !- End Month
  31,                                     !- End Day of Month
  ,                                       !- Use Weather File Holidays and Special Days
  ,                                       !- Use Weather File Daylight Saving Period
  ,                                       !- Apply Weekend Holiday Rule
  ,                                       !- Use Weather File Rain Indicators
  ,                                       !- Use Weather File Snow Indicators
  ;                                       !- Number of Times Runperiod to be Repeated

OS:PerformancePrecisionTradeoffs,
  {52e92b52-da47-4a5f-969c-af42ba22ff45}, !- Handle
  ,                                       !- Use Coil Direct Solutions
  CarrollMRT;                             !- Zone Radiant Exchange Algorithm

OS:WeatherFile,
  {4d708d8e-7eb2-4d02-ba61-d3df88a26872}, !- Handle
  Buffalo Niagara Intl Ap,                !- City
  NY,                                     !- State Province Region
  USA,                                    !- Country
  TMY3,                                   !- Data Source
  725280,                                 !- WMO Number
  42.93,                                  !- Latitude {deg}
  -78.73,                                 !- Longitude {deg}
  -5,                                     !- Time Zone {hr}
  215,                                    !- Elevation {m}
  /Users/nmoore/github/urbanopt-example-geojson-project/example_project/weather/USA_NY_Buffalo-Greater.Buffalo.Intl.AP.725280_TMY3.epw, !- Url
  6B50E0FF,                               !- Checksum
  ,                                       !- Start Date Actual Year
  Sunday;                                 !- Start Day of Week

OS:YearDescription,
  {a1eeb31a-77b6-4bba-93d9-3fd71388dac1}, !- Handle
  2007,                                   !- Calendar Year
  ,                                       !- Day of Week for Start Day
  ;                                       !- Is Leap Year

OS:Site,
  {289a392c-f2d6-4a88-8d6c-3bee5aad2454}, !- Handle
  Buffalo Niagara Intl Ap_NY,             !- Name
  42.93,                                  !- Latitude {deg}
  -78.73,                                 !- Longitude {deg}
  -5,                                     !- Time Zone {hr}
  215,                                    !- Elevation {m}
  Suburbs,                                !- Terrain
  Yes;                                    !- Keep Site Location Information

OS:RunPeriodControl:DaylightSavingTime,
  {05c71b58-2bdc-4815-86d9-0b1247bd86c3}, !- Handle
  Mar 12,                                 !- Start Date
  Nov 5;                                  !- End Date

OS:Site:GroundTemperature:Shallow,
  {9ad58c9c-2b49-470e-ba2e-9e2a78fa989e}, !- Handle
  4.30207395723828,                       !- January Surface Ground Temperature {C}
  2.29327249652502,                       !- February Surface Ground Temperature {C}
  2.13240047156047,                       !- March Surface Ground Temperature {C}
  3.08567940719286,                       !- April Surface Ground Temperature {C}
  6.91256312497526,                       !- May Surface Ground Temperature {C}
  10.7216195949507,                       !- June Surface Ground Temperature {C}
  14.0238679822574,                       !- July Surface Ground Temperature {C}
  16.1157611184724,                       !- August Surface Ground Temperature {C}
  16.2934789303462,                       !- September Surface Ground Temperature {C}
  14.5920754632847,                       !- October Surface Ground Temperature {C}
  11.374036348653,                        !- November Surface Ground Temperature {C}
  7.68182621661674;                       !- December Surface Ground Temperature {C}

OS:Site:GroundTemperature:Deep,
  {63bbb383-1a08-4b74-87c2-6a7625c2732f}, !- Handle
  10,                                     !- January Deep Ground Temperature {C}
  10,                                     !- February Deep Ground Temperature {C}
  10,                                     !- March Deep Ground Temperature {C}
  10,                                     !- April Deep Ground Temperature {C}
  10,                                     !- May Deep Ground Temperature {C}
  10,                                     !- June Deep Ground Temperature {C}
  10,                                     !- July Deep Ground Temperature {C}
  10,                                     !- August Deep Ground Temperature {C}
  10,                                     !- September Deep Ground Temperature {C}
  10,                                     !- October Deep Ground Temperature {C}
  10,                                     !- November Deep Ground Temperature {C}
  10;                                     !- December Deep Ground Temperature {C}

OS:ThermalZone,
  {418a29be-5b25-4753-a1da-b74197d3658b}, !- Handle
  conditioned space,                      !- Name
  1,                                      !- Multiplier
  ,                                       !- Ceiling Height {m}
  692.06373070848,                        !- Volume {m3}
  ,                                       !- Floor Area {m2}
  ,                                       !- Zone Inside Convection Algorithm
  ,                                       !- Zone Outside Convection Algorithm
  ,                                       !- Zone Conditioning Equipment List Name
  {80f71977-f5b6-4041-9bba-feca9fd76411}, !- Zone Air Inlet Port List
  {ba148d5d-13bb-430f-b547-cc11f17d3b7b}, !- Zone Air Exhaust Port List
  {86414942-2820-41a4-8cb4-931a1a9f06f3}, !- Zone Air Node Name
  {8eb5b557-542a-45e6-82b2-6641a87cea65}, !- Zone Return Air Port List
  ,                                       !- Primary Daylighting Control Name
  ,                                       !- Fraction of Zone Controlled by Primary Daylighting Control
  ,                                       !- Secondary Daylighting Control Name
  ,                                       !- Fraction of Zone Controlled by Secondary Daylighting Control
  ,                                       !- Illuminance Map Name
  ,                                       !- Group Rendering Name
  {ea99d786-c85b-43bc-8afc-ff9b9afce458}, !- Thermostat Name
  No;                                     !- Use Ideal Air Loads

OS:Node,
  {dafd1cb3-018d-4643-85f0-5fa48cefd6e9}, !- Handle
  Node 1,                                 !- Name
  {86414942-2820-41a4-8cb4-931a1a9f06f3}, !- Inlet Port
  ;                                       !- Outlet Port

OS:Connection,
  {86414942-2820-41a4-8cb4-931a1a9f06f3}, !- Handle
  {418a29be-5b25-4753-a1da-b74197d3658b}, !- Source Object
  11,                                     !- Outlet Port
  {dafd1cb3-018d-4643-85f0-5fa48cefd6e9}, !- Target Object
  2;                                      !- Inlet Port

OS:PortList,
  {80f71977-f5b6-4041-9bba-feca9fd76411}, !- Handle
  {418a29be-5b25-4753-a1da-b74197d3658b}, !- HVAC Component
  {be72bcf6-acde-49c8-9b1d-1b0f6ed28034}; !- Port 1

OS:PortList,
  {ba148d5d-13bb-430f-b547-cc11f17d3b7b}, !- Handle
  {418a29be-5b25-4753-a1da-b74197d3658b}; !- HVAC Component

OS:PortList,
  {8eb5b557-542a-45e6-82b2-6641a87cea65}, !- Handle
  {418a29be-5b25-4753-a1da-b74197d3658b}, !- HVAC Component
  {0bf8b48a-e9ae-408a-9565-0f023dcb3c66}; !- Port 1

OS:Sizing:Zone,
  {433cf335-1c41-4e5e-b404-1c6775410a14}, !- Handle
  {418a29be-5b25-4753-a1da-b74197d3658b}, !- Zone or ZoneList Name
  SupplyAirTemperature,                   !- Zone Cooling Design Supply Air Temperature Input Method
  14,                                     !- Zone Cooling Design Supply Air Temperature {C}
  11.11,                                  !- Zone Cooling Design Supply Air Temperature Difference {deltaC}
  SupplyAirTemperature,                   !- Zone Heating Design Supply Air Temperature Input Method
  40,                                     !- Zone Heating Design Supply Air Temperature {C}
  11.11,                                  !- Zone Heating Design Supply Air Temperature Difference {deltaC}
  0.0085,                                 !- Zone Cooling Design Supply Air Humidity Ratio {kg-H2O/kg-air}
  0.008,                                  !- Zone Heating Design Supply Air Humidity Ratio {kg-H2O/kg-air}
  ,                                       !- Zone Heating Sizing Factor
  ,                                       !- Zone Cooling Sizing Factor
  DesignDay,                              !- Cooling Design Air Flow Method
  ,                                       !- Cooling Design Air Flow Rate {m3/s}
  ,                                       !- Cooling Minimum Air Flow per Zone Floor Area {m3/s-m2}
  ,                                       !- Cooling Minimum Air Flow {m3/s}
  ,                                       !- Cooling Minimum Air Flow Fraction
  DesignDay,                              !- Heating Design Air Flow Method
  ,                                       !- Heating Design Air Flow Rate {m3/s}
  ,                                       !- Heating Maximum Air Flow per Zone Floor Area {m3/s-m2}
  ,                                       !- Heating Maximum Air Flow {m3/s}
  ,                                       !- Heating Maximum Air Flow Fraction
  No,                                     !- Account for Dedicated Outdoor Air System
  NeutralSupplyAir,                       !- Dedicated Outdoor Air System Control Strategy
  autosize,                               !- Dedicated Outdoor Air Low Setpoint Temperature for Design {C}
  autosize,                               !- Dedicated Outdoor Air High Setpoint Temperature for Design {C}
  Sensible Load Only No Latent Load,      !- Zone Load Sizing Method
  HumidityRatioDifference,                !- Zone Latent Cooling Design Supply Air Humidity Ratio Input Method
  ,                                       !- Zone Dehumidification Design Supply Air Humidity Ratio {kgWater/kgDryAir}
  0.005,                                  !- Zone Cooling Design Supply Air Humidity Ratio Difference {kgWater/kgDryAir}
  HumidityRatioDifference,                !- Zone Latent Heating Design Supply Air Humidity Ratio Input Method
  ,                                       !- Zone Humidification Design Supply Air Humidity Ratio {kgWater/kgDryAir}
  0.005,                                  !- Zone Humidification Design Supply Air Humidity Ratio Difference {kgWater/kgDryAir}
  ,                                       !- Zone Humidistat Dehumidification Set Point Schedule Name
  ,                                       !- Zone Humidistat Humidification Set Point Schedule Name
  ,                                       !- Design Zone Air Distribution Effectiveness in Cooling Mode
  ,                                       !- Design Zone Air Distribution Effectiveness in Heating Mode
  ,                                       !- Design Zone Secondary Recirculation Fraction {dimensionless}
  ,                                       !- Design Minimum Zone Ventilation Efficiency {dimensionless}
  Coincident;                             !- Sizing Option

OS:ZoneHVAC:EquipmentList,
  {fe1498c6-3dce-40bc-ae22-94f19447e251}, !- Handle
  Zone HVAC Equipment List 1,             !- Name
  {418a29be-5b25-4753-a1da-b74197d3658b}, !- Thermal Zone
  ,                                       !- Load Distribution Scheme
  {6efa18c7-ab95-47e1-bb9a-1681355b7bbd}, !- Zone Equipment 1
  1,                                      !- Zone Equipment Cooling Sequence 1
  1,                                      !- Zone Equipment Heating or No-Load Sequence 1
  {bbbdf9df-9e09-44e0-a1a9-1a33ea12b963}, !- Zone Equipment Sequential Cooling Fraction Schedule Name 1
  {0a1ccb86-ce90-4d6a-ab38-1ccf4a60ccfd}; !- Zone Equipment Sequential Heating Fraction Schedule Name 1

OS:AdditionalProperties,
  {a165c440-4f3d-41b4-98d0-b6277c70de07}, !- Handle
  {418a29be-5b25-4753-a1da-b74197d3658b}, !- Object Name
  ObjectType,                             !- Feature Name 1
  String,                                 !- Feature Data Type 1
  conditioned space;                      !- Feature Value 1

OS:Space,
  {6aa0316d-8738-4e4d-b82f-8031b9b57020}, !- Handle
  conditioned space 1,                    !- Name
  ,                                       !- Space Type Name
  ,                                       !- Default Construction Set Name
  ,                                       !- Default Schedule Set Name
  ,                                       !- Direction of Relative North {deg}
  ,                                       !- X Origin {m}
  ,                                       !- Y Origin {m}
  ,                                       !- Z Origin {m}
  ,                                       !- Building Story Name
  {418a29be-5b25-4753-a1da-b74197d3658b}, !- Thermal Zone Name
  ,                                       !- Part of Total Floor Area
  ,                                       !- Design Specification Outdoor Air Object Name
  ,                                       !- Building Unit Name
  692.06373070848;                        !- Volume {m3}

OS:Schedule:Ruleset,
  {dccdc51b-19ed-4396-b7b1-c6578f4b9830}, !- Handle
  heating setpoint,                       !- Name
  {ecb3fc02-b9ca-488e-825c-00d9fef76f94}, !- Schedule Type Limits Name
  {694bd2b2-9e60-48ae-8466-3826a09838e2}; !- Default Day Schedule Name

OS:Schedule:Day,
  {694bd2b2-9e60-48ae-8466-3826a09838e2}, !- Handle
  heating setpoint default day,           !- Name
  {ecb3fc02-b9ca-488e-825c-00d9fef76f94}, !- Schedule Type Limits Name
  ,                                       !- Interpolate to Timestep
  24,                                     !- Hour 1
  0,                                      !- Minute 1
  0;                                      !- Value Until Time 1

OS:Schedule:Rule,
  {3043de8c-d4eb-4746-9d85-735b6a9069cc}, !- Handle
  heating setpoint allday rule,           !- Name
  {dccdc51b-19ed-4396-b7b1-c6578f4b9830}, !- Schedule Ruleset Name
  0,                                      !- Rule Order
  {9beb9ebd-875b-4ddb-bff1-58f4d9318d85}, !- Day Schedule Name
  Yes,                                    !- Apply Sunday
  Yes,                                    !- Apply Monday
  Yes,                                    !- Apply Tuesday
  Yes,                                    !- Apply Wednesday
  Yes,                                    !- Apply Thursday
  Yes,                                    !- Apply Friday
  Yes,                                    !- Apply Saturday
  DateRange,                              !- Date Specification Type
  1,                                      !- Start Month
  1,                                      !- Start Day
  12,                                     !- End Month
  31;                                     !- End Day

OS:Schedule:Day,
  {9beb9ebd-875b-4ddb-bff1-58f4d9318d85}, !- Handle
  heating setpoint day,                   !- Name
  {ecb3fc02-b9ca-488e-825c-00d9fef76f94}, !- Schedule Type Limits Name
  ,                                       !- Interpolate to Timestep
  24,                                     !- Hour 1
  0,                                      !- Minute 1
  20;                                     !- Value Until Time 1

OS:Schedule:Ruleset,
  {463d125d-636b-418c-b093-e028eeb563d1}, !- Handle
  cooling setpoint,                       !- Name
  {ecb3fc02-b9ca-488e-825c-00d9fef76f94}, !- Schedule Type Limits Name
  {0b462377-7eeb-437e-8649-e9bc8da61f6d}; !- Default Day Schedule Name

OS:Schedule:Day,
  {0b462377-7eeb-437e-8649-e9bc8da61f6d}, !- Handle
  cooling setpoint default day,           !- Name
  {ecb3fc02-b9ca-488e-825c-00d9fef76f94}, !- Schedule Type Limits Name
  ,                                       !- Interpolate to Timestep
  24,                                     !- Hour 1
  0,                                      !- Minute 1
  0;                                      !- Value Until Time 1

OS:Schedule:Rule,
  {efe0f082-18f0-420c-bab6-a7e5a350816e}, !- Handle
  cooling setpoint allday rule,           !- Name
  {463d125d-636b-418c-b093-e028eeb563d1}, !- Schedule Ruleset Name
  0,                                      !- Rule Order
  {766a5514-8f26-45d1-8bbe-7dfcf2b91c97}, !- Day Schedule Name
  Yes,                                    !- Apply Sunday
  Yes,                                    !- Apply Monday
  Yes,                                    !- Apply Tuesday
  Yes,                                    !- Apply Wednesday
  Yes,                                    !- Apply Thursday
  Yes,                                    !- Apply Friday
  Yes,                                    !- Apply Saturday
  DateRange,                              !- Date Specification Type
  1,                                      !- Start Month
  1,                                      !- Start Day
  12,                                     !- End Month
  31;                                     !- End Day

OS:Schedule:Day,
  {766a5514-8f26-45d1-8bbe-7dfcf2b91c97}, !- Handle
  cooling setpoint day,                   !- Name
  {ecb3fc02-b9ca-488e-825c-00d9fef76f94}, !- Schedule Type Limits Name
  ,                                       !- Interpolate to Timestep
  24,                                     !- Hour 1
  0,                                      !- Minute 1
  25.5555555555556;                       !- Value Until Time 1

OS:ThermostatSetpoint:DualSetpoint,
  {ea99d786-c85b-43bc-8afc-ff9b9afce458}, !- Handle
  conditioned space temperature setpoint, !- Name
  {dccdc51b-19ed-4396-b7b1-c6578f4b9830}, !- Heating Setpoint Temperature Schedule Name
  {463d125d-636b-418c-b093-e028eeb563d1}, !- Cooling Setpoint Temperature Schedule Name
  0;                                      !- Temperature Difference Between Cutout And Setpoint {deltaC}

OS:ScheduleTypeLimits,
  {ecb3fc02-b9ca-488e-825c-00d9fef76f94}, !- Handle
  Temperature,                            !- Name
  ,                                       !- Lower Limit Value
  ,                                       !- Upper Limit Value
  Continuous,                             !- Numeric Type
  Temperature;                            !- Unit Type

OS:Surface,
  {656bcaac-299d-4e35-a302-830146a2f2ab}, !- Handle
  Roof1,                                  !- Name
  RoofCeiling,                            !- Surface Type
  {51ee7c03-ae41-4e89-82fc-5679f061a665}, !- Construction Name
  {8507f085-6b0f-4300-892e-3f422b5a32ae}, !- Space Name
  Outdoors,                               !- Outside Boundary Condition
  ,                                       !- Outside Boundary Condition Object
  SunExposed,                             !- Sun Exposure
  WindExposed,                            !- Wind Exposure
  ,                                       !- View Factor to Ground
  ,                                       !- Number of Vertices
  -26.9347048849634, 58.0557891618865, 2.4384, !- X,Y,Z Vertex 1 {m}
  -26.9347048849634, 46.7895631136661, 8.0715130241102, !- X,Y,Z Vertex 2 {m}
  -14.3386812381136, 46.7895631136661, 8.0715130241102, !- X,Y,Z Vertex 3 {m}
  -14.3386812381136, 58.0557891618865, 2.4384; !- X,Y,Z Vertex 4 {m}

OS:AdditionalProperties,
  {36396b72-a86b-4722-a3b1-3ec786a9318e}, !- Handle
  {656bcaac-299d-4e35-a302-830146a2f2ab}, !- Object Name
  Length,                                 !- Feature Name 1
  Double,                                 !- Feature Data Type 1
  41.325536899113608,                     !- Feature Value 1
  Width,                                  !- Feature Name 2
  Double,                                 !- Feature Data Type 2
  41.325536899113601,                     !- Feature Value 2
  Azimuth,                                !- Feature Name 3
  Integer,                                !- Feature Data Type 3
  0,                                      !- Feature Value 3
  Tilt,                                   !- Feature Name 4
  Double,                                 !- Feature Data Type 4
  0.5,                                    !- Feature Value 4
  SurfaceType,                            !- Feature Name 5
  String,                                 !- Feature Data Type 5
  Roof;                                   !- Feature Value 5

OS:ThermalZone,
  {8ae51a04-0c82-48c6-ae2d-89b0e4ca664d}, !- Handle
  attic - vented,                         !- Name
  1,                                      !- Multiplier
  ,                                       !- Ceiling Height {m}
  356.389957095237,                       !- Volume {m3}
  ,                                       !- Floor Area {m2}
  ,                                       !- Zone Inside Convection Algorithm
  ,                                       !- Zone Outside Convection Algorithm
  ,                                       !- Zone Conditioning Equipment List Name
  {92fee006-9f25-4a08-bced-1d3b27da4e5e}, !- Zone Air Inlet Port List
  {0509e844-2fd7-4008-9c27-3fccb257ddc2}, !- Zone Air Exhaust Port List
  {fb659f73-276d-465a-91d6-dd247a6940c1}, !- Zone Air Node Name
  {4d7eb061-bb32-4825-a397-dae25588f418}, !- Zone Return Air Port List
  ,                                       !- Primary Daylighting Control Name
  ,                                       !- Fraction of Zone Controlled by Primary Daylighting Control
  ,                                       !- Secondary Daylighting Control Name
  ,                                       !- Fraction of Zone Controlled by Secondary Daylighting Control
  ,                                       !- Illuminance Map Name
  ,                                       !- Group Rendering Name
  ,                                       !- Thermostat Name
  No;                                     !- Use Ideal Air Loads

OS:Node,
  {4d3c3af4-e727-44ca-970a-443178babea2}, !- Handle
  Node 2,                                 !- Name
  {fb659f73-276d-465a-91d6-dd247a6940c1}, !- Inlet Port
  ;                                       !- Outlet Port

OS:Connection,
  {fb659f73-276d-465a-91d6-dd247a6940c1}, !- Handle
  {8ae51a04-0c82-48c6-ae2d-89b0e4ca664d}, !- Source Object
  11,                                     !- Outlet Port
  {4d3c3af4-e727-44ca-970a-443178babea2}, !- Target Object
  2;                                      !- Inlet Port

OS:PortList,
  {92fee006-9f25-4a08-bced-1d3b27da4e5e}, !- Handle
  {8ae51a04-0c82-48c6-ae2d-89b0e4ca664d}; !- HVAC Component

OS:PortList,
  {0509e844-2fd7-4008-9c27-3fccb257ddc2}, !- Handle
  {8ae51a04-0c82-48c6-ae2d-89b0e4ca664d}; !- HVAC Component

OS:PortList,
  {4d7eb061-bb32-4825-a397-dae25588f418}, !- Handle
  {8ae51a04-0c82-48c6-ae2d-89b0e4ca664d}; !- HVAC Component

OS:Sizing:Zone,
  {5e80d597-423d-4f8c-8360-1875ff4a4076}, !- Handle
  {8ae51a04-0c82-48c6-ae2d-89b0e4ca664d}, !- Zone or ZoneList Name
  SupplyAirTemperature,                   !- Zone Cooling Design Supply Air Temperature Input Method
  14,                                     !- Zone Cooling Design Supply Air Temperature {C}
  11.11,                                  !- Zone Cooling Design Supply Air Temperature Difference {deltaC}
  SupplyAirTemperature,                   !- Zone Heating Design Supply Air Temperature Input Method
  40,                                     !- Zone Heating Design Supply Air Temperature {C}
  11.11,                                  !- Zone Heating Design Supply Air Temperature Difference {deltaC}
  0.0085,                                 !- Zone Cooling Design Supply Air Humidity Ratio {kg-H2O/kg-air}
  0.008,                                  !- Zone Heating Design Supply Air Humidity Ratio {kg-H2O/kg-air}
  ,                                       !- Zone Heating Sizing Factor
  ,                                       !- Zone Cooling Sizing Factor
  DesignDay,                              !- Cooling Design Air Flow Method
  ,                                       !- Cooling Design Air Flow Rate {m3/s}
  ,                                       !- Cooling Minimum Air Flow per Zone Floor Area {m3/s-m2}
  ,                                       !- Cooling Minimum Air Flow {m3/s}
  ,                                       !- Cooling Minimum Air Flow Fraction
  DesignDay,                              !- Heating Design Air Flow Method
  ,                                       !- Heating Design Air Flow Rate {m3/s}
  ,                                       !- Heating Maximum Air Flow per Zone Floor Area {m3/s-m2}
  ,                                       !- Heating Maximum Air Flow {m3/s}
  ,                                       !- Heating Maximum Air Flow Fraction
  No,                                     !- Account for Dedicated Outdoor Air System
  NeutralSupplyAir,                       !- Dedicated Outdoor Air System Control Strategy
  autosize,                               !- Dedicated Outdoor Air Low Setpoint Temperature for Design {C}
  autosize,                               !- Dedicated Outdoor Air High Setpoint Temperature for Design {C}
  Sensible Load Only No Latent Load,      !- Zone Load Sizing Method
  HumidityRatioDifference,                !- Zone Latent Cooling Design Supply Air Humidity Ratio Input Method
  ,                                       !- Zone Dehumidification Design Supply Air Humidity Ratio {kgWater/kgDryAir}
  0.005,                                  !- Zone Cooling Design Supply Air Humidity Ratio Difference {kgWater/kgDryAir}
  HumidityRatioDifference,                !- Zone Latent Heating Design Supply Air Humidity Ratio Input Method
  ,                                       !- Zone Humidification Design Supply Air Humidity Ratio {kgWater/kgDryAir}
  0.005,                                  !- Zone Humidification Design Supply Air Humidity Ratio Difference {kgWater/kgDryAir}
  ,                                       !- Zone Humidistat Dehumidification Set Point Schedule Name
  ,                                       !- Zone Humidistat Humidification Set Point Schedule Name
  ,                                       !- Design Zone Air Distribution Effectiveness in Cooling Mode
  ,                                       !- Design Zone Air Distribution Effectiveness in Heating Mode
  ,                                       !- Design Zone Secondary Recirculation Fraction {dimensionless}
  ,                                       !- Design Minimum Zone Ventilation Efficiency {dimensionless}
  Coincident;                             !- Sizing Option

OS:ZoneHVAC:EquipmentList,
  {7e0c4ef9-e520-48a7-9b13-a499e861e232}, !- Handle
  Zone HVAC Equipment List 2,             !- Name
  {8ae51a04-0c82-48c6-ae2d-89b0e4ca664d}; !- Thermal Zone

OS:AdditionalProperties,
  {c8a12d29-f709-458e-9ea7-5c7a494fb899}, !- Handle
  {8ae51a04-0c82-48c6-ae2d-89b0e4ca664d}, !- Object Name
  ObjectType,                             !- Feature Name 1
  String,                                 !- Feature Data Type 1
  attic - vented;                         !- Feature Value 1

OS:Space,
  {8507f085-6b0f-4300-892e-3f422b5a32ae}, !- Handle
  attic - vented 1,                       !- Name
  ,                                       !- Space Type Name
  ,                                       !- Default Construction Set Name
  ,                                       !- Default Schedule Set Name
  ,                                       !- Direction of Relative North {deg}
  ,                                       !- X Origin {m}
  ,                                       !- Y Origin {m}