
OS:Version,
  {39750cbd-fdb8-4f35-ba5a-56e26088b2ed}, !- Handle
  3.10.0;                                 !- Version Identifier

OS:SimulationControl,
  {2d514b7a-738b-4891-b2fe-d24c6af60836}, !- Handle
  ,                                       !- Do Zone Sizing Calculation
  ,                                       !- Do System Sizing Calculation
  ,                                       !- Do Plant Sizing Calculation
  No;                                     !- Run Simulation for Sizing Periods

OS:Timestep,
  {8ab2f1cd-ba6e-4dee-a1e5-adb97bd9dd0f}, !- Handle
  1;                                      !- Number of Timesteps per Hour

OS:ShadowCalculation,
  {2d009d3a-e9a7-4df6-8d7f-7d85dc8e66b5}, !- Handle
  PolygonClipping,                        !- Shading Calculation Method
  ,                                       !- Shading Calculation Update Frequency Method
  20,                                     !- Shading Calculation Update Frequency
  200,                                    !- Maximum Figures in Shadow Overlap Calculations
  ,                                       !- Polygon Clipping Algorithm
  512,                                    !- Pixel Counting Resolution
  ,                                       !- Sky Diffuse Modeling Algorithm
  No,                                     !- Output External Shading Calculation Results
  No,                                     !- Disable Self-Shading Within Shading Zone Groups
  No;                                     !- Disable Self-Shading From Shading Zone Groups to Other Zones

OS:SurfaceConvectionAlgorithm:Outside,
  {e2665f73-fc18-49b5-8f9a-78f5618dbd1a}, !- Handle
  DOE-2;                                  !- Algorithm

OS:SurfaceConvectionAlgorithm:Inside,
  {f6ca57e6-1ac9-4c82-87bd-5f1c490f1b51}, !- Handle
  TARP;                                   !- Algorithm

OS:ZoneCapacitanceMultiplier:ResearchSpecial,
  {c4b865e6-7ec0-4ad1-969a-5193ecc12830}, !- Handle
  7,                                      !- Temperature Capacity Multiplier
  15,                                     !- Humidity Capacity Multiplier
  ;                                       !- Carbon Dioxide Capacity Multiplier

OS:ConvergenceLimits,
  {adffbe83-05f3-4fcd-99d2-5bea4cebd71c}, !- Handle
  0;                                      !- Minimum System Timestep {minutes}

OS:RunPeriod,
  {34037eec-44b5-4d1d-aad5-ad98146473ae}, !- Handle
  Run Period 1,                           !- Name
  1,                                      !- Begin Month
  1,                                      !- Begin Day of Month
  12,                                     !- End Month
  31,                                     !- End Day of Month
  ,                                       !- Use Weather File Holidays and Special Days
  ,                                       !- Use Weather File Daylight Saving Period
  ,                                       !- Apply Weekend Holiday Rule
  ,                                       !- Use Weather File Rain Indicators
  ,                                       !- Use Weather File Snow Indicators
  ;                                       !- Number of Times Runperiod to be Repeated

OS:PerformancePrecisionTradeoffs,
  {515be036-2728-4af9-96c4-cf6cf6280857}, !- Handle
  ,                                       !- Use Coil Direct Solutions
  CarrollMRT;                             !- Zone Radiant Exchange Algorithm

OS:WeatherFile,
  {74962917-1e9a-4491-8888-cdfc086055b2}, !- Handle
  Buffalo Niagara Intl Ap,                !- City
  NY,                                     !- State Province Region
  USA,                                    !- Country
  TMY3,                                   !- Data Source
  725280,                                 !- WMO Number
  42.93,                                  !- Latitude {deg}
  -78.73,                                 !- Longitude {deg}
  -5,                                     !- Time Zone {hr}
  215,                                    !- Elevation {m}
  /Users/nmoore/github/urbanopt-example-geojson-project/example_project/weather/USA_NY_Buffalo-Greater.Buffalo.Intl.AP.725280_TMY3.epw, !- Url
  6B50E0FF,                               !- Checksum
  ,                                       !- Start Date Actual Year
  Sunday;                                 !- Start Day of Week

OS:YearDescription,
  {0052218c-3f1a-4027-8a77-b48c796f7a47}, !- Handle
  2007,                                   !- Calendar Year
  ,                                       !- Day of Week for Start Day
  ;                                       !- Is Leap Year

OS:Site,
  {ab807ff7-0c00-48df-af6e-cf230330466b}, !- Handle
  Buffalo Niagara Intl Ap_NY,             !- Name
  42.93,                                  !- Latitude {deg}
  -78.73,                                 !- Longitude {deg}
  -5,                                     !- Time Zone {hr}
  215,                                    !- Elevation {m}
  Suburbs,                                !- Terrain
  Yes;                                    !- Keep Site Location Information

OS:RunPeriodControl:DaylightSavingTime,
  {70103906-d401-4beb-900c-0f315544c9bd}, !- Handle
  Mar 12,                                 !- Start Date
  Nov 5;                                  !- End Date

OS:Site:GroundTemperature:Shallow,
  {609f191e-988f-49cb-b836-b12dfa894670}, !- Handle
  4.30207395723828,                       !- January Surface Ground Temperature {C}
  2.29327249652502,                       !- February Surface Ground Temperature {C}
  2.13240047156047,                       !- March Surface Ground Temperature {C}
  3.08567940719286,                       !- April Surface Ground Temperature {C}
  6.91256312497526,                       !- May Surface Ground Temperature {C}
  10.7216195949507,                       !- June Surface Ground Temperature {C}
  14.0238679822574,                       !- July Surface Ground Temperature {C}
  16.1157611184724,                       !- August Surface Ground Temperature {C}
  16.2934789303462,                       !- September Surface Ground Temperature {C}
  14.5920754632847,                       !- October Surface Ground Temperature {C}
  11.374036348653,                        !- November Surface Ground Temperature {C}
  7.68182621661674;                       !- December Surface Ground Temperature {C}

OS:Site:GroundTemperature:Deep,
  {e64c9d2a-a4ce-497d-906e-022a8caae39b}, !- Handle
  10,                                     !- January Deep Ground Temperature {C}
  10,                                     !- February Deep Ground Temperature {C}
  10,                                     !- March Deep Ground Temperature {C}
  10,                                     !- April Deep Ground Temperature {C}
  10,                                     !- May Deep Ground Temperature {C}
  10,                                     !- June Deep Ground Temperature {C}
  10,                                     !- July Deep Ground Temperature {C}
  10,                                     !- August Deep Ground Temperature {C}
  10,                                     !- September Deep Ground Temperature {C}
  10,                                     !- October Deep Ground Temperature {C}
  10,                                     !- November Deep Ground Temperature {C}
  10;                                     !- December Deep Ground Temperature {C}

OS:ThermalZone,
  {a2860a49-c517-4e04-b237-a5060f103f81}, !- Handle
  conditioned space,                      !- Name
  1,                                      !- Multiplier
  ,                                       !- Ceiling Height {m}
  692.06373070848,                        !- Volume {m3}
  ,                                       !- Floor Area {m2}
  ,                                       !- Zone Inside Convection Algorithm
  ,                                       !- Zone Outside Convection Algorithm
  ,                                       !- Zone Conditioning Equipment List Name
  {8d441d71-025f-4b90-91e5-9f65f329cd78}, !- Zone Air Inlet Port List
  {4ec0db50-0abe-4fde-9ee9-da28772b7dbd}, !- Zone Air Exhaust Port List
  {7d186408-4b12-4c1f-9596-8b2fc32fdfda}, !- Zone Air Node Name
  {5dceac12-adf2-4009-ab14-f46f74e72d6e}, !- Zone Return Air Port List
  ,                                       !- Primary Daylighting Control Name
  ,                                       !- Fraction of Zone Controlled by Primary Daylighting Control
  ,                                       !- Secondary Daylighting Control Name
  ,                                       !- Fraction of Zone Controlled by Secondary Daylighting Control
  ,                                       !- Illuminance Map Name
  ,                                       !- Group Rendering Name
  {306fa2bd-a035-4d32-b75c-4e16b25798d8}, !- Thermostat Name
  No;                                     !- Use Ideal Air Loads

OS:Node,
  {9865e17b-9e6d-41f7-a4ea-e433558c583f}, !- Handle
  Node 1,                                 !- Name
  {7d186408-4b12-4c1f-9596-8b2fc32fdfda}, !- Inlet Port
  ;                                       !- Outlet Port

OS:Connection,
  {7d186408-4b12-4c1f-9596-8b2fc32fdfda}, !- Handle
  {a2860a49-c517-4e04-b237-a5060f103f81}, !- Source Object
  11,                                     !- Outlet Port
  {9865e17b-9e6d-41f7-a4ea-e433558c583f}, !- Target Object
  2;                                      !- Inlet Port

OS:PortList,
  {8d441d71-025f-4b90-91e5-9f65f329cd78}, !- Handle
  {a2860a49-c517-4e04-b237-a5060f103f81}, !- HVAC Component
  {7d3ffc58-89ec-45ff-afb0-a266f5a05462}; !- Port 1

OS:PortList,
  {4ec0db50-0abe-4fde-9ee9-da28772b7dbd}, !- Handle
  {a2860a49-c517-4e04-b237-a5060f103f81}; !- HVAC Component

OS:PortList,
  {5dceac12-adf2-4009-ab14-f46f74e72d6e}, !- Handle
  {a2860a49-c517-4e04-b237-a5060f103f81}, !- HVAC Component
  {db63f69d-d312-48ab-b5b7-8e4eaf186b9b}; !- Port 1

OS:Sizing:Zone,
  {bbd263da-e5b2-4adf-a20f-9db0334522bd}, !- Handle
  {a2860a49-c517-4e04-b237-a5060f103f81}, !- Zone or ZoneList Name
  SupplyAirTemperature,                   !- Zone Cooling Design Supply Air Temperature Input Method
  14,                                     !- Zone Cooling Design Supply Air Temperature {C}
  11.11,                                  !- Zone Cooling Design Supply Air Temperature Difference {deltaC}
  SupplyAirTemperature,                   !- Zone Heating Design Supply Air Temperature Input Method
  40,                                     !- Zone Heating Design Supply Air Temperature {C}
  11.11,                                  !- Zone Heating Design Supply Air Temperature Difference {deltaC}
  0.0085,                                 !- Zone Cooling Design Supply Air Humidity Ratio {kg-H2O/kg-air}
  0.008,                                  !- Zone Heating Design Supply Air Humidity Ratio {kg-H2O/kg-air}
  ,                                       !- Zone Heating Sizing Factor
  ,                                       !- Zone Cooling Sizing Factor
  DesignDay,                              !- Cooling Design Air Flow Method
  ,                                       !- Cooling Design Air Flow Rate {m3/s}
  ,                                       !- Cooling Minimum Air Flow per Zone Floor Area {m3/s-m2}
  ,                                       !- Cooling Minimum Air Flow {m3/s}
  ,                                       !- Cooling Minimum Air Flow Fraction
  DesignDay,                              !- Heating Design Air Flow Method
  ,                                       !- Heating Design Air Flow Rate {m3/s}
  ,                                       !- Heating Maximum Air Flow per Zone Floor Area {m3/s-m2}
  ,                                       !- Heating Maximum Air Flow {m3/s}
  ,                                       !- Heating Maximum Air Flow Fraction
  No,                                     !- Account for Dedicated Outdoor Air System
  NeutralSupplyAir,                       !- Dedicated Outdoor Air System Control Strategy
  autosize,                               !- Dedicated Outdoor Air Low Setpoint Temperature for Design {C}
  autosize,                               !- Dedicated Outdoor Air High Setpoint Temperature for Design {C}
  Sensible Load Only No Latent Load,      !- Zone Load Sizing Method
  HumidityRatioDifference,                !- Zone Latent Cooling Design Supply Air Humidity Ratio Input Method
  ,                                       !- Zone Dehumidification Design Supply Air Humidity Ratio {kgWater/kgDryAir}
  0.005,                                  !- Zone Cooling Design Supply Air Humidity Ratio Difference {kgWater/kgDryAir}
  HumidityRatioDifference,                !- Zone Latent Heating Design Supply Air Humidity Ratio Input Method
  ,                                       !- Zone Humidification Design Supply Air Humidity Ratio {kgWater/kgDryAir}
  0.005,                                  !- Zone Humidification Design Supply Air Humidity Ratio Difference {kgWater/kgDryAir}
  ,                                       !- Zone Humidistat Dehumidification Set Point Schedule Name
  ,                                       !- Zone Humidistat Humidification Set Point Schedule Name
  ,                                       !- Design Zone Air Distribution Effectiveness in Cooling Mode
  ,                                       !- Design Zone Air Distribution Effectiveness in Heating Mode
  ,                                       !- Design Zone Secondary Recirculation Fraction {dimensionless}
  ,                                       !- Design Minimum Zone Ventilation Efficiency {dimensionless}
  Coincident;                             !- Sizing Option

OS:ZoneHVAC:EquipmentList,
  {39cc7531-f17b-42e8-8b61-ce56fa2ba261}, !- Handle
  Zone HVAC Equipment List 1,             !- Name
  {a2860a49-c517-4e04-b237-a5060f103f81}, !- Thermal Zone
  ,                                       !- Load Distribution Scheme
  {205cdccd-3d07-42e3-9823-2c6a914757c9}, !- Zone Equipment 1
  1,                                      !- Zone Equipment Cooling Sequence 1
  1,                                      !- Zone Equipment Heating or No-Load Sequence 1
  {7702fdd4-dccf-4f15-8e7f-115d41b560b6}, !- Zone Equipment Sequential Cooling Fraction Schedule Name 1
  {f40d2c69-0b13-4e64-9a1c-64b9e729ef05}; !- Zone Equipment Sequential Heating Fraction Schedule Name 1

OS:AdditionalProperties,
  {0a9eeedd-7dbe-4e32-af44-84a554899b16}, !- Handle
  {a2860a49-c517-4e04-b237-a5060f103f81}, !- Object Name
  ObjectType,                             !- Feature Name 1
  String,                                 !- Feature Data Type 1
  conditioned space;                      !- Feature Value 1

OS:Space,
  {445598b4-2ea0-4749-a2ed-7d41d6090858}, !- Handle
  conditioned space 1,                    !- Name
  ,                                       !- Space Type Name
  ,                                       !- Default Construction Set Name
  ,                                       !- Default Schedule Set Name
  ,                                       !- Direction of Relative North {deg}
  ,                                       !- X Origin {m}
  ,                                       !- Y Origin {m}
  ,                                       !- Z Origin {m}
  ,                                       !- Building Story Name
  {a2860a49-c517-4e04-b237-a5060f103f81}, !- Thermal Zone Name
  ,                                       !- Part of Total Floor Area
  ,                                       !- Design Specification Outdoor Air Object Name
  ,                                       !- Building Unit Name
  692.06373070848;                        !- Volume {m3}

OS:Schedule:Ruleset,
  {143d772f-fb8d-48ee-b183-5fd8a4876199}, !- Handle
  heating setpoint,                       !- Name
  {ec3d7ab7-9d48-4aa3-af3a-1cfa5258a709}, !- Schedule Type Limits Name
  {3463f2a3-d178-422a-9ae8-d415b71cdf52}; !- Default Day Schedule Name

OS:Schedule:Day,
  {3463f2a3-d178-422a-9ae8-d415b71cdf52}, !- Handle
  heating setpoint default day,           !- Name
  {ec3d7ab7-9d48-4aa3-af3a-1cfa5258a709}, !- Schedule Type Limits Name
  ,                                       !- Interpolate to Timestep
  24,                                     !- Hour 1
  0,                                      !- Minute 1
  0;                                      !- Value Until Time 1

OS:Schedule:Rule,
  {bcf94cfa-f5ce-4551-99b1-711ed96a0da4}, !- Handle
  heating setpoint allday rule,           !- Name
  {143d772f-fb8d-48ee-b183-5fd8a4876199}, !- Schedule Ruleset Name
  0,                                      !- Rule Order
  {265ceee3-d4fe-47e1-9e9c-07c982a163c5}, !- Day Schedule Name
  Yes,                                    !- Apply Sunday
  Yes,                                    !- Apply Monday
  Yes,                                    !- Apply Tuesday
  Yes,                                    !- Apply Wednesday
  Yes,                                    !- Apply Thursday
  Yes,                                    !- Apply Friday
  Yes,                                    !- Apply Saturday
  DateRange,                              !- Date Specification Type
  1,                                      !- Start Month
  1,                                      !- Start Day
  12,                                     !- End Month
  31;                                     !- End Day

OS:Schedule:Day,
  {265ceee3-d4fe-47e1-9e9c-07c982a163c5}, !- Handle
  heating setpoint day,                   !- Name
  {ec3d7ab7-9d48-4aa3-af3a-1cfa5258a709}, !- Schedule Type Limits Name
  ,                                       !- Interpolate to Timestep
  24,                                     !- Hour 1
  0,                                      !- Minute 1
  20;                                     !- Value Until Time 1

OS:Schedule:Ruleset,
  {cb96a43f-e98f-486c-844f-d2473985ac93}, !- Handle
  cooling setpoint,                       !- Name
  {ec3d7ab7-9d48-4aa3-af3a-1cfa5258a709}, !- Schedule Type Limits Name
  {f21142e3-dbdd-43dc-9e19-ae1067395d74}; !- Default Day Schedule Name

OS:Schedule:Day,
  {f21142e3-dbdd-43dc-9e19-ae1067395d74}, !- Handle
  cooling setpoint default day,           !- Name
  {ec3d7ab7-9d48-4aa3-af3a-1cfa5258a709}, !- Schedule Type Limits Name
  ,                                       !- Interpolate to Timestep
  24,                                     !- Hour 1
  0,                                      !- Minute 1
  0;                                      !- Value Until Time 1

OS:Schedule:Rule,
  {b41aad67-6226-4fe1-9036-ff1c457aee26}, !- Handle
  cooling setpoint allday rule,           !- Name
  {cb96a43f-e98f-486c-844f-d2473985ac93}, !- Schedule Ruleset Name
  0,                                      !- Rule Order
  {828c016a-c44d-4589-ae33-bcf69c75364e}, !- Day Schedule Name
  Yes,                                    !- Apply Sunday
  Yes,                                    !- Apply Monday
  Yes,                                    !- Apply Tuesday
  Yes,                                    !- Apply Wednesday
  Yes,                                    !- Apply Thursday
  Yes,                                    !- Apply Friday
  Yes,                                    !- Apply Saturday
  DateRange,                              !- Date Specification Type
  1,                                      !- Start Month
  1,                                      !- Start Day
  12,                                     !- End Month
  31;                                     !- End Day

OS:Schedule:Day,
  {828c016a-c44d-4589-ae33-bcf69c75364e}, !- Handle
  cooling setpoint day,                   !- Name
  {ec3d7ab7-9d48-4aa3-af3a-1cfa5258a709}, !- Schedule Type Limits Name
  ,                                       !- Interpolate to Timestep
  24,                                     !- Hour 1
  0,                                      !- Minute 1
  25.5555555555556;                       !- Value Until Time 1

OS:ThermostatSetpoint:DualSetpoint,
  {306fa2bd-a035-4d32-b75c-4e16b25798d8}, !- Handle
  conditioned space temperature setpoint, !- Name
  {143d772f-fb8d-48ee-b183-5fd8a4876199}, !- Heating Setpoint Temperature Schedule Name
  {cb96a43f-e98f-486c-844f-d2473985ac93}, !- Cooling Setpoint Temperature Schedule Name
  0;                                      !- Temperature Difference Between Cutout And Setpoint {deltaC}

OS:ScheduleTypeLimits,
  {ec3d7ab7-9d48-4aa3-af3a-1cfa5258a709}, !- Handle
  Temperature,                            !- Name
  ,                                       !- Lower Limit Value
  ,                                       !- Upper Limit Value
  Continuous,                             !- Numeric Type
  Temperature;                            !- Unit Type

OS:Surface,
  {d0ffddff-77a7-4ba7-9cd8-1d22b8b49971}, !- Handle
  Roof1,                                  !- Name
  RoofCeiling,                            !- Surface Type
  {abe72ace-a764-44a8-9a2e-3d38fbb1a231}, !- Construction Name
  {93078ff6-e273-4e7f-abe8-db6eecb3fe1d}, !- Space Name
  Outdoors,                               !- Outside Boundary Condition
  ,                                       !- Outside Boundary Condition Object
  SunExposed,                             !- Sun Exposure
  WindExposed,                            !- Wind Exposure
  ,                                       !- View Factor to Ground
  ,                                       !- Number of Vertices
  -26.9347048849634, 58.0557891618865, 2.4384, !- X,Y,Z Vertex 1 {m}
  -26.9347048849634, 46.7895631136661, 8.0715130241102, !- X,Y,Z Vertex 2 {m}
  -14.3386812381136, 46.7895631136661, 8.0715130241102, !- X,Y,Z Vertex 3 {m}
  -14.3386812381136, 58.0557891618865, 2.4384; !- X,Y,Z Vertex 4 {m}

OS:AdditionalProperties,
  {f675f041-e2d2-4400-af82-a80d229a24b7}, !- Handle
  {d0ffddff-77a7-4ba7-9cd8-1d22b8b49971}, !- Object Name
  Length,                                 !- Feature Name 1
  Double,                                 !- Feature Data Type 1
  41.325536899113608,                     !- Feature Value 1
  Width,                                  !- Feature Name 2
  Double,                                 !- Feature Data Type 2
  41.325536899113601,                     !- Feature Value 2
  Azimuth,                                !- Feature Name 3
  Integer,                                !- Feature Data Type 3
  0,                                      !- Feature Value 3
  Tilt,                                   !- Feature Name 4
  Double,                                 !- Feature Data Type 4
  0.5,                                    !- Feature Value 4
  SurfaceType,                            !- Feature Name 5
  String,                                 !- Feature Data Type 5
  Roof;                                   !- Feature Value 5

OS:ThermalZone,
  {bb1f5c19-8205-462f-a524-38ed40f845e0}, !- Handle
  attic - vented,                         !- Name
  1,                                      !- Multiplier
  ,                                       !- Ceiling Height {m}
  356.390921899745,                       !- Volume {m3}
  ,                                       !- Floor Area {m2}
  ,                                       !- Zone Inside Convection Algorithm
  ,                                       !- Zone Outside Convection Algorithm
  ,                                       !- Zone Conditioning Equipment List Name
  {8ef23795-9657-4326-8f51-35f36030f4e4}, !- Zone Air Inlet Port List
  {ef7d01ae-8878-43f0-814c-0fb6d947d92f}, !- Zone Air Exhaust Port List
  {643febec-69e4-4614-955a-1fa59f3ac27e}, !- Zone Air Node Name
  {b53de676-1575-42ae-9e18-a150a95ca9fc}, !- Zone Return Air Port List
  ,                                       !- Primary Daylighting Control Name
  ,                                       !- Fraction of Zone Controlled by Primary Daylighting Control
  ,                                       !- Secondary Daylighting Control Name
  ,                                       !- Fraction of Zone Controlled by Secondary Daylighting Control
  ,                                       !- Illuminance Map Name
  ,                                       !- Group Rendering Name
  ,                                       !- Thermostat Name
  No;                                     !- Use Ideal Air Loads

OS:Node,
  {55025792-c9e0-4d2e-af86-5b2175b3b779}, !- Handle
  Node 2,                                 !- Name
  {643febec-69e4-4614-955a-1fa59f3ac27e}, !- Inlet Port
  ;                                       !- Outlet Port

OS:Connection,
  {643febec-69e4-4614-955a-1fa59f3ac27e}, !- Handle
  {bb1f5c19-8205-462f-a524-38ed40f845e0}, !- Source Object
  11,                                     !- Outlet Port
  {55025792-c9e0-4d2e-af86-5b2175b3b779}, !- Target Object
  2;                                      !- Inlet Port

OS:PortList,
  {8ef23795-9657-4326-8f51-35f36030f4e4}, !- Handle
  {bb1f5c19-8205-462f-a524-38ed40f845e0}; !- HVAC Component

OS:PortList,
  {ef7d01ae-8878-43f0-814c-0fb6d947d92f}, !- Handle
  {bb1f5c19-8205-462f-a524-38ed40f845e0}; !- HVAC Component

OS:PortList,
  {b53de676-1575-42ae-9e18-a150a95ca9fc}, !- Handle
  {bb1f5c19-8205-462f-a524-38ed40f845e0}; !- HVAC Component

OS:Sizing:Zone,
  {1c00ef70-5345-45ae-bd87-630dae42aad4}, !- Handle
  {bb1f5c19-8205-462f-a524-38ed40f845e0}, !- Zone or ZoneList Name
  SupplyAirTemperature,                   !- Zone Cooling Design Supply Air Temperature Input Method
  14,                                     !- Zone Cooling Design Supply Air Temperature {C}
  11.11,                                  !- Zone Cooling Design Supply Air Temperature Difference {deltaC}
  SupplyAirTemperature,                   !- Zone Heating Design Supply Air Temperature Input Method
  40,                                     !- Zone Heating Design Supply Air Temperature {C}
  11.11,                                  !- Zone Heating Design Supply Air Temperature Difference {deltaC}
  0.0085,                                 !- Zone Cooling Design Supply Air Humidity Ratio {kg-H2O/kg-air}
  0.008,                                  !- Zone Heating Design Supply Air Humidity Ratio {kg-H2O/kg-air}
  ,                                       !- Zone Heating Sizing Factor
  ,                                       !- Zone Cooling Sizing Factor
  DesignDay,                              !- Cooling Design Air Flow Method
  ,                                       !- Cooling Design Air Flow Rate {m3/s}
  ,                                       !- Cooling Minimum Air Flow per Zone Floor Area {m3/s-m2}
  ,                                       !- Cooling Minimum Air Flow {m3/s}
  ,                                       !- Cooling Minimum Air Flow Fraction
  DesignDay,                              !- Heating Design Air Flow Method
  ,                                       !- Heating Design Air Flow Rate {m3/s}
  ,                                       !- Heating Maximum Air Flow per Zone Floor Area {m3/s-m2}
  ,                                       !- Heating Maximum Air Flow {m3/s}
  ,                                       !- Heating Maximum Air Flow Fraction
  No,                                     !- Account for Dedicated Outdoor Air System
  NeutralSupplyAir,                       !- Dedicated Outdoor Air System Control Strategy
  autosize,                               !- Dedicated Outdoor Air Low Setpoint Temperature for Design {C}
  autosize,                               !- Dedicated Outdoor Air High Setpoint Temperature for Design {C}
  Sensible Load Only No Latent Load,      !- Zone Load Sizing Method
  HumidityRatioDifference,                !- Zone Latent Cooling Design Supply Air Humidity Ratio Input Method
  ,                                       !- Zone Dehumidification Design Supply Air Humidity Ratio {kgWater/kgDryAir}
  0.005,                                  !- Zone Cooling Design Supply Air Humidity Ratio Difference {kgWater/kgDryAir}
  HumidityRatioDifference,                !- Zone Latent Heating Design Supply Air Humidity Ratio Input Method
  ,                                       !- Zone Humidification Design Supply Air Humidity Ratio {kgWater/kgDryAir}
  0.005,                                  !- Zone Humidification Design Supply Air Humidity Ratio Difference {kgWater/kgDryAir}
  ,                                       !- Zone Humidistat Dehumidification Set Point Schedule Name
  ,                                       !- Zone Humidistat Humidification Set Point Schedule Name
  ,                                       !- Design Zone Air Distribution Effectiveness in Cooling Mode
  ,                                       !- Design Zone Air Distribution Effectiveness in Heating Mode
  ,                                       !- Design Zone Secondary Recirculation Fraction {dimensionless}
  ,                                       !- Design Minimum Zone Ventilation Efficiency {dimensionless}
  Coincident;                             !- Sizing Option

OS:ZoneHVAC:EquipmentList,
  {d7fa4210-1d00-43fe-80d1-f3377ea9656e}, !- Handle
  Zone HVAC Equipment List 2,             !- Name
  {bb1f5c19-8205-462f-a524-38ed40f845e0}; !- Thermal Zone

OS:AdditionalProperties,
  {1a617e8e-2b89-4539-89db-e66a0b25f68f}, !- Handle
  {bb1f5c19-8205-462f-a524-38ed40f845e0}, !- Object Name
  ObjectType,                             !- Feature Name 1
  String,                                 !- Feature Data Type 1
  attic - vented;                         !- Feature Value 1

OS:Space,
  {93078ff6-e273-4e7f-abe8-db6eecb3fe1d}, !- Handle
  attic - vented 1,                       !- Name
  ,                                       !- Space Type Name
  ,                                       !- Default Construction Set Name
  ,                                       !- Default Schedule Set Name
  ,                                       !- Direction of Relative North {deg}
  ,                                       !- X Origin {m}
  ,                                       !- Y Origin {m}