
OS:Version,
  {39095e20-8ca6-4654-8105-9f378cb114a4}, !- Handle
  3.10.0;                                 !- Version Identifier

OS:SimulationControl,
  {fd5eb834-5b15-4280-ab57-236de4d1eec2}, !- Handle
  ,                                       !- Do Zone Sizing Calculation
  ,                                       !- Do System Sizing Calculation
  ,                                       !- Do Plant Sizing Calculation
  No;                                     !- Run Simulation for Sizing Periods

OS:Timestep,
  {cbacc4f1-af4f-4972-80a4-0c5aac27ba5f}, !- Handle
  1;                                      !- Number of Timesteps per Hour

OS:ShadowCalculation,
  {9c8f623a-dfb7-4e68-83f6-5b8e4f2804a0}, !- Handle
  PolygonClipping,                        !- Shading Calculation Method
  ,                                       !- Shading Calculation Update Frequency Method
  20,                                     !- Shading Calculation Update Frequency
  200,                                    !- Maximum Figures in Shadow Overlap Calculations
  ,                                       !- Polygon Clipping Algorithm
  512,                                    !- Pixel Counting Resolution
  ,                                       !- Sky Diffuse Modeling Algorithm
  No,                                     !- Output External Shading Calculation Results
  No,                                     !- Disable Self-Shading Within Shading Zone Groups
  No;                                     !- Disable Self-Shading From Shading Zone Groups to Other Zones

OS:SurfaceConvectionAlgorithm:Outside,
  {a33d94f8-8b21-4d9e-b8b0-84d81c79be3b}, !- Handle
  DOE-2;                                  !- Algorithm

OS:SurfaceConvectionAlgorithm:Inside,
  {1a633dbb-c775-43e6-bd17-06354e52c8a9}, !- Handle
  TARP;                                   !- Algorithm

OS:ZoneCapacitanceMultiplier:ResearchSpecial,
  {68023bbf-684d-4ade-b3bc-6dbb3e30b62f}, !- Handle
  7,                                      !- Temperature Capacity Multiplier
  15,                                     !- Humidity Capacity Multiplier
  ;                                       !- Carbon Dioxide Capacity Multiplier

OS:ConvergenceLimits,
  {5717ed3c-5eb8-4ba7-b801-f677508872a0}, !- Handle
  0;                                      !- Minimum System Timestep {minutes}

OS:RunPeriod,
  {fc173dc2-9be0-4e94-9cbd-d7312b51d816}, !- Handle
  Run Period 1,                           !- Name
  1,                                      !- Begin Month
  1,                                      !- Begin Day of Month
  12,                                     !- End Month
  31,                                     !- End Day of Month
  ,                                       !- Use Weather File Holidays and Special Days
  ,                                       !- Use Weather File Daylight Saving Period
  ,                                       !- Apply Weekend Holiday Rule
  ,                                       !- Use Weather File Rain Indicators
  ,                                       !- Use Weather File Snow Indicators
  ;                                       !- Number of Times Runperiod to be Repeated

OS:PerformancePrecisionTradeoffs,
  {27719c68-82f0-4c94-87e8-6d2ffa6d3caf}, !- Handle
  ,                                       !- Use Coil Direct Solutions
  CarrollMRT;                             !- Zone Radiant Exchange Algorithm

OS:WeatherFile,
  {09dad9d3-6513-49a0-8a02-b2be1c8d5361}, !- Handle
  Buffalo Niagara Intl Ap,                !- City
  NY,                                     !- State Province Region
  USA,                                    !- Country
  TMY3,                                   !- Data Source
  725280,                                 !- WMO Number
  42.93,                                  !- Latitude {deg}
  -78.73,                                 !- Longitude {deg}
  -5,                                     !- Time Zone {hr}
  215,                                    !- Elevation {m}
  /Users/nmoore/github/urbanopt-example-geojson-project/example_project/weather/USA_NY_Buffalo-Greater.Buffalo.Intl.AP.725280_TMY3.epw, !- Url
  6B50E0FF,                               !- Checksum
  ,                                       !- Start Date Actual Year
  Sunday;                                 !- Start Day of Week

OS:YearDescription,
  {410f7573-ce52-4a1c-9696-f3e24446b691}, !- Handle
  2007,                                   !- Calendar Year
  ,                                       !- Day of Week for Start Day
  ;                                       !- Is Leap Year

OS:Site,
  {47b4a949-9099-49be-9e8c-f41474f1272b}, !- Handle
  Buffalo Niagara Intl Ap_NY,             !- Name
  42.93,                                  !- Latitude {deg}
  -78.73,                                 !- Longitude {deg}
  -5,                                     !- Time Zone {hr}
  215,                                    !- Elevation {m}
  Suburbs,                                !- Terrain
  Yes;                                    !- Keep Site Location Information

OS:RunPeriodControl:DaylightSavingTime,
  {cda1fc76-9981-4fba-8cb2-9b1f696e3947}, !- Handle
  Mar 12,                                 !- Start Date
  Nov 5;                                  !- End Date

OS:Site:GroundTemperature:Shallow,
  {b646c906-518f-4376-8a1d-5edcd362ba43}, !- Handle
  4.30207395723828,                       !- January Surface Ground Temperature {C}
  2.29327249652502,                       !- February Surface Ground Temperature {C}
  2.13240047156047,                       !- March Surface Ground Temperature {C}
  3.08567940719286,                       !- April Surface Ground Temperature {C}
  6.91256312497526,                       !- May Surface Ground Temperature {C}
  10.7216195949507,                       !- June Surface Ground Temperature {C}
  14.0238679822574,                       !- July Surface Ground Temperature {C}
  16.1157611184724,                       !- August Surface Ground Temperature {C}
  16.2934789303462,                       !- September Surface Ground Temperature {C}
  14.5920754632847,                       !- October Surface Ground Temperature {C}
  11.374036348653,                        !- November Surface Ground Temperature {C}
  7.68182621661674;                       !- December Surface Ground Temperature {C}

OS:ThermalZone,
  {433d7ae4-0ae1-4bae-8229-606ee1247316}, !- Handle
  conditioned space,                      !- Name
  1,                                      !- Multiplier
  ,                                       !- Ceiling Height {m}
  346.03186535424,                        !- Volume {m3}
  ,                                       !- Floor Area {m2}
  ,                                       !- Zone Inside Convection Algorithm
  ,                                       !- Zone Outside Convection Algorithm
  ,                                       !- Zone Conditioning Equipment List Name
  {4b12e73f-66f9-4446-ac23-59ac2ed38092}, !- Zone Air Inlet Port List
  {7716481c-926e-470b-a35e-75c35d7d02a6}, !- Zone Air Exhaust Port List
  {5df46682-bb34-46a2-bfe8-6d232fa5a9c3}, !- Zone Air Node Name
  {1dd49d15-c872-42b1-af6f-f90ba3f9629a}, !- Zone Return Air Port List
  ,                                       !- Primary Daylighting Control Name
  ,                                       !- Fraction of Zone Controlled by Primary Daylighting Control
  ,                                       !- Secondary Daylighting Control Name
  ,                                       !- Fraction of Zone Controlled by Secondary Daylighting Control
  ,                                       !- Illuminance Map Name
  ,                                       !- Group Rendering Name
  {fe62a22b-0010-47e8-88da-364fa98b8c8b}, !- Thermostat Name
  No;                                     !- Use Ideal Air Loads

OS:Node,
  {74afde7a-0ba4-45f1-b327-7ec2be6dcea6}, !- Handle
  Node 1,                                 !- Name
  {5df46682-bb34-46a2-bfe8-6d232fa5a9c3}, !- Inlet Port
  ;                                       !- Outlet Port

OS:Connection,
  {5df46682-bb34-46a2-bfe8-6d232fa5a9c3}, !- Handle
  {433d7ae4-0ae1-4bae-8229-606ee1247316}, !- Source Object
  11,                                     !- Outlet Port
  {74afde7a-0ba4-45f1-b327-7ec2be6dcea6}, !- Target Object
  2;                                      !- Inlet Port

OS:PortList,
  {4b12e73f-66f9-4446-ac23-59ac2ed38092}, !- Handle
  {433d7ae4-0ae1-4bae-8229-606ee1247316}, !- HVAC Component
  {aeb4729d-aacf-46d8-a7ec-8802568eca14}; !- Port 1

OS:PortList,
  {7716481c-926e-470b-a35e-75c35d7d02a6}, !- Handle
  {433d7ae4-0ae1-4bae-8229-606ee1247316}; !- HVAC Component

OS:PortList,
  {1dd49d15-c872-42b1-af6f-f90ba3f9629a}, !- Handle
  {433d7ae4-0ae1-4bae-8229-606ee1247316}, !- HVAC Component
  {322eeb0b-0a05-4a66-a6ec-cf17be4d8332}; !- Port 1

OS:Sizing:Zone,
  {ee39fffd-2979-4bb1-be4a-1dddd434f989}, !- Handle
  {433d7ae4-0ae1-4bae-8229-606ee1247316}, !- Zone or ZoneList Name
  SupplyAirTemperature,                   !- Zone Cooling Design Supply Air Temperature Input Method
  14,                                     !- Zone Cooling Design Supply Air Temperature {C}
  11.11,                                  !- Zone Cooling Design Supply Air Temperature Difference {deltaC}
  SupplyAirTemperature,                   !- Zone Heating Design Supply Air Temperature Input Method
  40,                                     !- Zone Heating Design Supply Air Temperature {C}
  11.11,                                  !- Zone Heating Design Supply Air Temperature Difference {deltaC}
  0.0085,                                 !- Zone Cooling Design Supply Air Humidity Ratio {kg-H2O/kg-air}
  0.008,                                  !- Zone Heating Design Supply Air Humidity Ratio {kg-H2O/kg-air}
  ,                                       !- Zone Heating Sizing Factor
  ,                                       !- Zone Cooling Sizing Factor
  DesignDay,                              !- Cooling Design Air Flow Method
  ,                                       !- Cooling Design Air Flow Rate {m3/s}
  ,                                       !- Cooling Minimum Air Flow per Zone Floor Area {m3/s-m2}
  ,                                       !- Cooling Minimum Air Flow {m3/s}
  ,                                       !- Cooling Minimum Air Flow Fraction
  DesignDay,                              !- Heating Design Air Flow Method
  ,                                       !- Heating Design Air Flow Rate {m3/s}
  ,                                       !- Heating Maximum Air Flow per Zone Floor Area {m3/s-m2}
  ,                                       !- Heating Maximum Air Flow {m3/s}
  ,                                       !- Heating Maximum Air Flow Fraction
  No,                                     !- Account for Dedicated Outdoor Air System
  NeutralSupplyAir,                       !- Dedicated Outdoor Air System Control Strategy
  autosize,                               !- Dedicated Outdoor Air Low Setpoint Temperature for Design {C}
  autosize,                               !- Dedicated Outdoor Air High Setpoint Temperature for Design {C}
  Sensible Load Only No Latent Load,      !- Zone Load Sizing Method
  HumidityRatioDifference,                !- Zone Latent Cooling Design Supply Air Humidity Ratio Input Method
  ,                                       !- Zone Dehumidification Design Supply Air Humidity Ratio {kgWater/kgDryAir}
  0.005,                                  !- Zone Cooling Design Supply Air Humidity Ratio Difference {kgWater/kgDryAir}
  HumidityRatioDifference,                !- Zone Latent Heating Design Supply Air Humidity Ratio Input Method
  ,                                       !- Zone Humidification Design Supply Air Humidity Ratio {kgWater/kgDryAir}
  0.005,                                  !- Zone Humidification Design Supply Air Humidity Ratio Difference {kgWater/kgDryAir}
  ,                                       !- Zone Humidistat Dehumidification Set Point Schedule Name
  ,                                       !- Zone Humidistat Humidification Set Point Schedule Name
  ,                                       !- Design Zone Air Distribution Effectiveness in Cooling Mode
  ,                                       !- Design Zone Air Distribution Effectiveness in Heating Mode
  ,                                       !- Design Zone Secondary Recirculation Fraction {dimensionless}
  ,                                       !- Design Minimum Zone Ventilation Efficiency {dimensionless}
  Coincident;                             !- Sizing Option

OS:ZoneHVAC:EquipmentList,
  {179747e1-201d-43e3-8eea-b9431d5b866a}, !- Handle
  Zone HVAC Equipment List 1,             !- Name
  {433d7ae4-0ae1-4bae-8229-606ee1247316}, !- Thermal Zone
  ,                                       !- Load Distribution Scheme
  {1fea6a4a-fd37-4e21-9bb0-d295d937fa21}, !- Zone Equipment 1
  1,                                      !- Zone Equipment Cooling Sequence 1
  1,                                      !- Zone Equipment Heating or No-Load Sequence 1
  {2e284402-6a95-4690-9802-c536d526a4cf}, !- Zone Equipment Sequential Cooling Fraction Schedule Name 1
  {e981aa96-a24d-49b7-8773-2a678055de13}; !- Zone Equipment Sequential Heating Fraction Schedule Name 1

OS:AdditionalProperties,
  {436b47bd-29c3-49b5-b843-3b1eb57834f8}, !- Handle
  {433d7ae4-0ae1-4bae-8229-606ee1247316}, !- Object Name
  ObjectType,                             !- Feature Name 1
  String,                                 !- Feature Data Type 1
  conditioned space;                      !- Feature Value 1

OS:Space,
  {18e40d77-4a03-4597-b787-d9012d329c3d}, !- Handle
  conditioned space 1,                    !- Name
  ,                                       !- Space Type Name
  ,                                       !- Default Construction Set Name
  ,                                       !- Default Schedule Set Name
  ,                                       !- Direction of Relative North {deg}
  ,                                       !- X Origin {m}
  ,                                       !- Y Origin {m}
  ,                                       !- Z Origin {m}
  ,                                       !- Building Story Name
  {433d7ae4-0ae1-4bae-8229-606ee1247316}, !- Thermal Zone Name
  ,                                       !- Part of Total Floor Area
  ,                                       !- Design Specification Outdoor Air Object Name
  ,                                       !- Building Unit Name
  346.03186535424;                        !- Volume {m3}

OS:Schedule:Ruleset,
  {5c9ad64f-19bb-47b4-8570-6a6a236cfc7b}, !- Handle
  heating setpoint,                       !- Name
  {b78379ec-92e4-4370-a9d1-ef66a276136d}, !- Schedule Type Limits Name
  {9476c560-61e6-4899-b524-bdd7886af262}; !- Default Day Schedule Name

OS:Schedule:Day,
  {9476c560-61e6-4899-b524-bdd7886af262}, !- Handle
  heating setpoint default day,           !- Name
  {b78379ec-92e4-4370-a9d1-ef66a276136d}, !- Schedule Type Limits Name
  ,                                       !- Interpolate to Timestep
  24,                                     !- Hour 1
  0,                                      !- Minute 1
  0;                                      !- Value Until Time 1

OS:Schedule:Rule,
  {be2cacbc-7a4d-4f48-9ed9-1c437882a10f}, !- Handle
  heating setpoint allday rule,           !- Name
  {5c9ad64f-19bb-47b4-8570-6a6a236cfc7b}, !- Schedule Ruleset Name
  0,                                      !- Rule Order
  {672985cd-7251-46d1-9a48-854c2b487915}, !- Day Schedule Name
  Yes,                                    !- Apply Sunday
  Yes,                                    !- Apply Monday
  Yes,                                    !- Apply Tuesday
  Yes,                                    !- Apply Wednesday
  Yes,                                    !- Apply Thursday
  Yes,                                    !- Apply Friday
  Yes,                                    !- Apply Saturday
  DateRange,                              !- Date Specification Type
  1,                                      !- Start Month
  1,                                      !- Start Day
  12,                                     !- End Month
  31;                                     !- End Day

OS:Schedule:Day,
  {672985cd-7251-46d1-9a48-854c2b487915}, !- Handle
  heating setpoint day,                   !- Name
  {b78379ec-92e4-4370-a9d1-ef66a276136d}, !- Schedule Type Limits Name
  ,                                       !- Interpolate to Timestep
  24,                                     !- Hour 1
  0,                                      !- Minute 1
  20;                                     !- Value Until Time 1

OS:Schedule:Ruleset,
  {32c83596-7f29-4e24-bdf5-6db42b782d6c}, !- Handle
  cooling setpoint,                       !- Name
  {b78379ec-92e4-4370-a9d1-ef66a276136d}, !- Schedule Type Limits Name
  {23177651-daaf-4b14-bad2-4e52dafcfda1}; !- Default Day Schedule Name

OS:Schedule:Day,
  {23177651-daaf-4b14-bad2-4e52dafcfda1}, !- Handle
  cooling setpoint default day,           !- Name
  {b78379ec-92e4-4370-a9d1-ef66a276136d}, !- Schedule Type Limits Name
  ,                                       !- Interpolate to Timestep
  24,                                     !- Hour 1
  0,                                      !- Minute 1
  0;                                      !- Value Until Time 1

OS:Schedule:Rule,
  {6035262e-cd46-4774-b3ef-444aa01b8598}, !- Handle
  cooling setpoint allday rule,           !- Name
  {32c83596-7f29-4e24-bdf5-6db42b782d6c}, !- Schedule Ruleset Name
  0,                                      !- Rule Order
  {20208da1-648a-459d-979c-6032b9b11301}, !- Day Schedule Name
  Yes,                                    !- Apply Sunday
  Yes,                                    !- Apply Monday
  Yes,                                    !- Apply Tuesday
  Yes,                                    !- Apply Wednesday
  Yes,                                    !- Apply Thursday
  Yes,                                    !- Apply Friday
  Yes,                                    !- Apply Saturday
  DateRange,                              !- Date Specification Type
  1,                                      !- Start Month
  1,                                      !- Start Day
  12,                                     !- End Month
  31;                                     !- End Day

OS:Schedule:Day,
  {20208da1-648a-459d-979c-6032b9b11301}, !- Handle
  cooling setpoint day,                   !- Name
  {b78379ec-92e4-4370-a9d1-ef66a276136d}, !- Schedule Type Limits Name
  ,                                       !- Interpolate to Timestep
  24,                                     !- Hour 1
  0,                                      !- Minute 1
  25.5555555555556;                       !- Value Until Time 1

OS:ThermostatSetpoint:DualSetpoint,
  {fe62a22b-0010-47e8-88da-364fa98b8c8b}, !- Handle
  conditioned space temperature setpoint, !- Name
  {5c9ad64f-19bb-47b4-8570-6a6a236cfc7b}, !- Heating Setpoint Temperature Schedule Name
  {32c83596-7f29-4e24-bdf5-6db42b782d6c}, !- Cooling Setpoint Temperature Schedule Name
  0;                                      !- Temperature Difference Between Cutout And Setpoint {deltaC}

OS:ScheduleTypeLimits,
  {b78379ec-92e4-4370-a9d1-ef66a276136d}, !- Handle
  Temperature,                            !- Name
  ,                                       !- Lower Limit Value
  ,                                       !- Upper Limit Value
  Continuous,                             !- Numeric Type
  Temperature;                            !- Unit Type

OS:Surface,
  {606ab824-0b29-4d87-8562-6fc992be34d9}, !- Handle
  Roof1,                                  !- Name
  RoofCeiling,                            !- Surface Type
  {3b765389-4c54-4ba3-ae84-416df30eb3fa}, !- Construction Name
  {18e40d77-4a03-4597-b787-d9012d329c3d}, !- Space Name
  Outdoors,                               !- Outside Boundary Condition
  ,                                       !- Outside Boundary Condition Object
  SunExposed,                             !- Sun Exposure
  WindExposed,                            !- Wind Exposure
  ,                                       !- View Factor to Ground
  ,                                       !- Number of Vertices
  -22.0836375774516, 27.3802233774516, 2.4384, !- X,Y,Z Vertex 1 {m}
  -22.0836375774516, 20.8754743017685, 5.69077453784155, !- X,Y,Z Vertex 2 {m}
  -14.8111070225484, 20.8754743017685, 5.69077453784155, !- X,Y,Z Vertex 3 {m}
  -14.8111070225484, 27.3802233774516, 2.4384; !- X,Y,Z Vertex 4 {m}

OS:AdditionalProperties,
  {6db5cb0f-5660-4e35-adce-d253920ed3b6}, !- Handle
  {606ab824-0b29-4d87-8562-6fc992be34d9}, !- Object Name
  Length,                                 !- Feature Name 1
  Double,                                 !- Feature Data Type 1
  23.860008382228202,                     !- Feature Value 1
  Width,                                  !- Feature Name 2
  Double,                                 !- Feature Data Type 2
  23.860008382228198,                     !- Feature Value 2
  Azimuth,                                !- Feature Name 3
  Integer,                                !- Feature Data Type 3
  0,                                      !- Feature Value 3
  Tilt,                                   !- Feature Name 4
  Double,                                 !- Feature Data Type 4
  0.5,                                    !- Feature Value 4
  SurfaceType,                            !- Feature Name 5
  String,                                 !- Feature Data Type 5
  Roof;                                   !- Feature Value 5

OS:Material,
  {df3bdcce-97d1-4674-be0c-333363c2cf04}, !- Handle
  asphalt or fiberglass shingles,         !- Name
  Rough,                                  !- Roughness
  0.00635,                                !- Thickness {m}
  0.162714,                               !- Conductivity {W/m-K}
  1121.4,                                 !- Density {kg/m3}
  1465.45,                                !- Specific Heat {J/kg-K}
  0.9,                                    !- Thermal Absorptance
  0.85,                                   !- Solar Absorptance
  0.85;                                   !- Visible Absorptance

OS:Material,
  {716ca447-8692-4cb9-b939-5f01733086c5}, !- Handle
  roof stud and cavity,                   !- Name
  Rough,                                  !- Roughness
  0.0889,                                 !- Thickness {m}
  0.468249472857624,                      !- Conductivity {W/m-K}
  50.32683,                               !- Density {kg/m3}
  1063.80987585548,                       !- Specific Heat {J/kg-K}
  0.9,                                    !- Thermal Absorptance
  0.7,                                    !- Solar Absorptance
  0.7;                                    !- Visible Absorptance

OS:Material,
  {c65a0f95-a6e7-4f28-865a-bbd5cfc98072}, !- Handle
  gypsum board,                           !- Name
  Rough,                                  !- Roughness
  0.00254,                                !- Thickness {m}
  0.1602906,                              !- Conductivity {W/m-K}
  801,                                    !- Density {kg/m3}
  837.4,                                  !- Specific Heat {J/kg-K}
  0.9,                                    !- Thermal Absorptance
  0.6,                                    !- Solar Absorptance
  0.6;                                    !- Visible Absorptance

OS:Construction,
  {3b765389-4c54-4ba3-ae84-416df30eb3fa}, !- Handle
  Roof1 construction,                     !- Name
  ,                                       !- Surface Rendering Name
  {df3bdcce-97d1-4674-be0c-333363c2cf04}, !- Layer 1
  {716ca447-8692-4cb9-b939-5f01733086c5}, !- Layer 2
  {c65a0f95-a6e7-4f28-865a-bbd5cfc98072}; !- Layer 3

OS:Surface,
  {cd7e5102-c951-47c2-966b-1092e75ad8c7}, !- Handle
  Roof2,                                  !- Name
  RoofCeiling,                            !- Surface Type
  {96a27721-864f-44f3-bdaf-bd1aa7c2a36a}, !- Construction Name
  {18e40d77-4a03-4597-b787-d9012d329c3d}, !- Space Name
  Outdoors,                               !- Outside Boundary Condition
  ,                                       !- Outside Boundary Condition Object
  SunExposed,                             !- Sun Exposure
  WindExposed,                            !- Wind Exposure
  ,                                       !- View Factor to Ground
  ,                                       !- Number of Vertices
  -20.1076928225484, -27.3802233774516, 2.4384, !- X,Y,Z Vertex 1 {m}
  -20.1076928225484, -20.8754743017685, 5.69077453784155, !- X,Y,Z Vertex 2 {m}
  -27.3802233774516, -20.8754743017685, 5.69077453784155, !- X,Y,Z Vertex 3 {m}
  -27.3802233774516, -27.3802233774516, 2.4384; !- X,Y,Z Vertex 4 {m}

OS:AdditionalProperties,
  {ae28d923-f0a4-40e1-abcf-e3f3c60be0a4}, !- Handle
  {cd7e5102-c951-47c2-966b-1092e75ad8c7}, !- Object Name
  Length,                                 !- Feature Name 1
  Double,                                 !- Feature Data Type 1
  23.860008382228202,                     !- Feature Value 1
  Width,                                  !- Feature Name 2
  Double,                                 !- Feature Data Type 2
  23.860008382228198,                     !- Feature Value 2
  Azimuth,                                !- Feature Name 3
  Integer,                                !- Feature Data Type 3
  180,                                    !- Feature Value 3
  Tilt,                                   !- Feature Name 4
  Double,                                 !- Feature Data Type 4
  0.5,                                    !- Feature Value 4
  SurfaceType,                            !- Feature Name 5
  String,                                 !- Feature Data Type 5
  Roof;                                   !- Feature Value 5

OS:Construction,
  {96a27721-864f-44f3-bdaf-bd1aa7c2a36a}, !- Handle
  Roof2 construction,                     !- Name
  ,                                       !- Surface Rendering Name
  {df3bdcce-97d1-4674-be0c-333363c2cf04}, !- Layer 1
  {716ca447-8692-4cb9-b939-5f01733086c5}, !- Layer 2
  {c65a0f95-a6e7-4f28-865a-bbd5cfc98072}; !- Layer 3

OS:Surface,
  {eb812ff9-ce26-497a-9dff-d458def7fddf}, !- Handle
  Wall1,                                  !- Name
  Wall,                                   !- Surface Type
  {3db2eb6c-1ac0-4a77-b1e6-d00daf2a4f13}, !- Construction Name
  {18e40d77-4a03-4597-b787-d9012d329c3d}, !- Space Name
  Outdoors,                               !- Outside Boundary Condition
  ,                                       !- Outside Boundary Condition Object
  SunExposed,                             !- Sun Exposure
  WindExposed,                            !- Wind Exposure
  ,                                       !- View Factor to Ground
  ,                                       !- Number of Vertices
  -26.4511929774516, 27.3802233774516, 0, !- X,Y,Z Vertex 1 {m}
  -26.4511929774516, 27.3802233774516, 4.8768, !- X,Y,Z Vertex 2 {m}
  -23.0126679774516, 27.3802233774516, 4.8768, !- X,Y,Z Vertex 3 {m}
  -23.0126679774516, 27.3802233774516, 0; !- X,Y,Z Vertex 4 {m}

OS:AdditionalProperties,
  {0b63db90-11c3-439f-b8e9-e40af3140d72}, !- Handle
  {eb812ff9-ce26-497a-9dff-d458def7fddf}, !- Object Name
  Length,                                 !- Feature Name 1
  Double,                                 !- Feature Data Type 1
  11.28125,                               !- Feature Value 1
  Azimuth,                                !- Feature Name 2
  Integer,                                !- Feature Data Type 2
  0,                                      !- Feature Value 2
  Tilt,                                   !- Feature Name 3
  Double,                                 !- Feature Data Type 3
  90,                                     !- Feature Value 3
  SurfaceType,                            !- Feature Name 4
  String,                                 !- Feature Data Type 4
  Wall;                                   !- Feature Value 4

OS:Material,
  {b0b01867-ad41-4164-ba13-0cc75b2cdc16}, !- Handle
  wood siding,                            !- Name
  Rough,                                  !- Roughness
  0.0254,                                 !- Thickness {m}
  0.1024175,                              !- Conductivity {W/m-K}
  544.68,                                 !- Density {kg/m3}
  1172.36,                                !- Specific Heat {J/kg-K}
  0.9,                                    !- Thermal Absorptance
  0.7,                                    !- Solar Absorptance
  0.7;                                    !- Visible Absorptance

OS:Material,
  {acc291a2-8d19-4c76-af0a-fb44348144c6}, !- Handle
  osb sheathing 0.5 in.,                  !- Name
  Rough,                                  !- Roughness
  0.0127,                                 !- Thickness {m}
  0.1154577,                              !- Conductivity {W/m-K}
  512.64,                                 !- Density {kg/m3}
  1214.23,                                !- Specific Heat {J/kg-K}
  0.9,                                    !- Thermal Absorptance
  0.7,                                    !- Solar Absorptance
  0.7;                                    !- Visible Absorptance

OS:Material,
  {eda3ff8f-7a05-4ce7-b66b-40d823db1a72}, !- Handle
  wall stud and cavity,                   !- Name
  Rough,                                  !- Roughness
  0.1397,                                 !- Thickness {m}
  0.0929021674204099,                     !- Conductivity {W/m-K}
  139.0536,                               !- Density {kg/m3}
  1170.23755760369,                       !- Specific Heat {J/kg-K}
  0.9,                                    !- Thermal Absorptance
  0.7,                                    !- Solar Absorptance