
OS:Version,
  {1c56a5c7-221f-48b7-a8cc-1dbdb9b0e2af}, !- Handle
  3.9.0;                                  !- Version Identifier

OS:SimulationControl,
  {e83207ae-ce7e-4e83-8137-fa9e24564fab}, !- Handle
  ,                                       !- Do Zone Sizing Calculation
  ,                                       !- Do System Sizing Calculation
  ,                                       !- Do Plant Sizing Calculation
  No;                                     !- Run Simulation for Sizing Periods

OS:Timestep,
  {aa0115e1-2254-49ab-8829-3bcef6663bb6}, !- Handle
  1;                                      !- Number of Timesteps per Hour

OS:ShadowCalculation,
  {0aba92f2-ad7f-4586-af40-b266817364a0}, !- Handle
  PolygonClipping,                        !- Shading Calculation Method
  ,                                       !- Shading Calculation Update Frequency Method
  20,                                     !- Shading Calculation Update Frequency
  200,                                    !- Maximum Figures in Shadow Overlap Calculations
  ,                                       !- Polygon Clipping Algorithm
  512,                                    !- Pixel Counting Resolution
  ,                                       !- Sky Diffuse Modeling Algorithm
  No,                                     !- Output External Shading Calculation Results
  No,                                     !- Disable Self-Shading Within Shading Zone Groups
  No;                                     !- Disable Self-Shading From Shading Zone Groups to Other Zones

OS:SurfaceConvectionAlgorithm:Outside,
  {d5efeb02-db27-43af-906e-55e0fe776bae}, !- Handle
  DOE-2;                                  !- Algorithm

OS:SurfaceConvectionAlgorithm:Inside,
  {05c4a9aa-4d34-4857-9a1f-9a341c0d4186}, !- Handle
  TARP;                                   !- Algorithm

OS:ZoneCapacitanceMultiplier:ResearchSpecial,
  {96866ee9-be48-4dd2-ae3c-ad9338a4d92d}, !- Handle
  7,                                      !- Temperature Capacity Multiplier
  15,                                     !- Humidity Capacity Multiplier
  ;                                       !- Carbon Dioxide Capacity Multiplier

OS:ConvergenceLimits,
  {23d347dc-c08e-448e-9649-231c7d8f8193}, !- Handle
  0;                                      !- Minimum System Timestep {minutes}

OS:RunPeriod,
  {82776353-e382-496e-80d0-bc591f082e28}, !- Handle
  Run Period 1,                           !- Name
  1,                                      !- Begin Month
  1,                                      !- Begin Day of Month
  12,                                     !- End Month
  31,                                     !- End Day of Month
  ,                                       !- Use Weather File Holidays and Special Days
  ,                                       !- Use Weather File Daylight Saving Period
  ,                                       !- Apply Weekend Holiday Rule
  ,                                       !- Use Weather File Rain Indicators
  ,                                       !- Use Weather File Snow Indicators
  ;                                       !- Number of Times Runperiod to be Repeated

OS:PerformancePrecisionTradeoffs,
  {829a34d3-1698-48d8-8573-a4928ed30a94}, !- Handle
  ,                                       !- Use Coil Direct Solutions
  CarrollMRT;                             !- Zone Radiant Exchange Algorithm

OS:WeatherFile,
  {6b98134a-629f-4204-8d5a-d25e8ae83e9f}, !- Handle
  Buffalo Niagara Intl Ap,                !- City
  NY,                                     !- State Province Region
  USA,                                    !- Country
  TMY3,                                   !- Data Source
  725280,                                 !- WMO Number
  42.93,                                  !- Latitude {deg}
  -78.73,                                 !- Longitude {deg}
  -5,                                     !- Time Zone {hr}
  215,                                    !- Elevation {m}
  /Users/nmoore/github/urbanopt-example-geojson-project/example_project/weather/USA_NY_Buffalo-Greater.Buffalo.Intl.AP.725280_TMY3.epw, !- Url
  6B50E0FF,                               !- Checksum
  ,                                       !- Start Date Actual Year
  Sunday;                                 !- Start Day of Week

OS:YearDescription,
  {7d2c0608-fa9e-4cc9-a071-2106e4f57c72}, !- Handle
  2007,                                   !- Calendar Year
  ,                                       !- Day of Week for Start Day
  ;                                       !- Is Leap Year

OS:Site,
  {5e0bc68f-b92f-49c4-9d92-e5cf6dd9fd65}, !- Handle
  Buffalo Niagara Intl Ap_NY,             !- Name
  42.93,                                  !- Latitude {deg}
  -78.73,                                 !- Longitude {deg}
  -5,                                     !- Time Zone {hr}
  215,                                    !- Elevation {m}
  Suburbs,                                !- Terrain
  Yes;                                    !- Keep Site Location Information

OS:RunPeriodControl:DaylightSavingTime,
  {c2f703d5-9d28-4db1-a6b4-3033f23168d9}, !- Handle
  Mar 12,                                 !- Start Date
  Nov 5;                                  !- End Date

OS:Site:GroundTemperature:Shallow,
  {b98030e8-d61c-4854-a5fe-1874924017c6}, !- Handle
  4.30207395723828,                       !- January Surface Ground Temperature {C}
  2.29327249652502,                       !- February Surface Ground Temperature {C}
  2.13240047156047,                       !- March Surface Ground Temperature {C}
  3.08567940719286,                       !- April Surface Ground Temperature {C}
  6.91256312497526,                       !- May Surface Ground Temperature {C}
  10.7216195949507,                       !- June Surface Ground Temperature {C}
  14.0238679822574,                       !- July Surface Ground Temperature {C}
  16.1157611184724,                       !- August Surface Ground Temperature {C}
  16.2934789303462,                       !- September Surface Ground Temperature {C}
  14.5920754632847,                       !- October Surface Ground Temperature {C}
  11.374036348653,                        !- November Surface Ground Temperature {C}
  7.68182621661674;                       !- December Surface Ground Temperature {C}

OS:ThermalZone,
  {359fe365-964e-459e-b7cf-41acfdb1d5d0}, !- Handle
  conditioned space,                      !- Name
  1,                                      !- Multiplier
  ,                                       !- Ceiling Height {m}
  346.03186535424,                        !- Volume {m3}
  ,                                       !- Floor Area {m2}
  ,                                       !- Zone Inside Convection Algorithm
  ,                                       !- Zone Outside Convection Algorithm
  ,                                       !- Zone Conditioning Equipment List Name
  {83479f1d-6fd8-4c45-89cf-6aff09a04549}, !- Zone Air Inlet Port List
  {10091ec7-8f2e-402d-96ae-f8cc00840255}, !- Zone Air Exhaust Port List
  {1343a502-794d-4be4-8b59-d14778f24de6}, !- Zone Air Node Name
  {7a1953fa-23ea-4f3a-ad86-584ae3966f2f}, !- Zone Return Air Port List
  ,                                       !- Primary Daylighting Control Name
  ,                                       !- Fraction of Zone Controlled by Primary Daylighting Control
  ,                                       !- Secondary Daylighting Control Name
  ,                                       !- Fraction of Zone Controlled by Secondary Daylighting Control
  ,                                       !- Illuminance Map Name
  ,                                       !- Group Rendering Name
  {728f4513-a78b-491f-9828-b83f8591a718}, !- Thermostat Name
  No;                                     !- Use Ideal Air Loads

OS:Node,
  {d7bd084e-7124-4003-88ce-190a5ae0803f}, !- Handle
  Node 1,                                 !- Name
  {1343a502-794d-4be4-8b59-d14778f24de6}, !- Inlet Port
  ;                                       !- Outlet Port

OS:Connection,
  {1343a502-794d-4be4-8b59-d14778f24de6}, !- Handle
  {359fe365-964e-459e-b7cf-41acfdb1d5d0}, !- Source Object
  11,                                     !- Outlet Port
  {d7bd084e-7124-4003-88ce-190a5ae0803f}, !- Target Object
  2;                                      !- Inlet Port

OS:PortList,
  {83479f1d-6fd8-4c45-89cf-6aff09a04549}, !- Handle
  {359fe365-964e-459e-b7cf-41acfdb1d5d0}, !- HVAC Component
  {8b94e1e3-face-4f01-bace-588be4dcd213}; !- Port 1

OS:PortList,
  {10091ec7-8f2e-402d-96ae-f8cc00840255}, !- Handle
  {359fe365-964e-459e-b7cf-41acfdb1d5d0}; !- HVAC Component

OS:PortList,
  {7a1953fa-23ea-4f3a-ad86-584ae3966f2f}, !- Handle
  {359fe365-964e-459e-b7cf-41acfdb1d5d0}, !- HVAC Component
  {1b21c0cb-7970-40d7-8cd5-eed8366ff0af}; !- Port 1

OS:Sizing:Zone,
  {f64e9bc3-c06c-44c1-b75b-a9f847dc09f2}, !- Handle
  {359fe365-964e-459e-b7cf-41acfdb1d5d0}, !- Zone or ZoneList Name
  SupplyAirTemperature,                   !- Zone Cooling Design Supply Air Temperature Input Method
  14,                                     !- Zone Cooling Design Supply Air Temperature {C}
  11.11,                                  !- Zone Cooling Design Supply Air Temperature Difference {deltaC}
  SupplyAirTemperature,                   !- Zone Heating Design Supply Air Temperature Input Method
  40,                                     !- Zone Heating Design Supply Air Temperature {C}
  11.11,                                  !- Zone Heating Design Supply Air Temperature Difference {deltaC}
  0.0085,                                 !- Zone Cooling Design Supply Air Humidity Ratio {kg-H2O/kg-air}
  0.008,                                  !- Zone Heating Design Supply Air Humidity Ratio {kg-H2O/kg-air}
  ,                                       !- Zone Heating Sizing Factor
  ,                                       !- Zone Cooling Sizing Factor
  DesignDay,                              !- Cooling Design Air Flow Method
  ,                                       !- Cooling Design Air Flow Rate {m3/s}
  ,                                       !- Cooling Minimum Air Flow per Zone Floor Area {m3/s-m2}
  ,                                       !- Cooling Minimum Air Flow {m3/s}
  ,                                       !- Cooling Minimum Air Flow Fraction
  DesignDay,                              !- Heating Design Air Flow Method
  ,                                       !- Heating Design Air Flow Rate {m3/s}
  ,                                       !- Heating Maximum Air Flow per Zone Floor Area {m3/s-m2}
  ,                                       !- Heating Maximum Air Flow {m3/s}
  ,                                       !- Heating Maximum Air Flow Fraction
  No,                                     !- Account for Dedicated Outdoor Air System
  NeutralSupplyAir,                       !- Dedicated Outdoor Air System Control Strategy
  autosize,                               !- Dedicated Outdoor Air Low Setpoint Temperature for Design {C}
  autosize,                               !- Dedicated Outdoor Air High Setpoint Temperature for Design {C}
  Sensible Load Only No Latent Load,      !- Zone Load Sizing Method
  HumidityRatioDifference,                !- Zone Latent Cooling Design Supply Air Humidity Ratio Input Method
  ,                                       !- Zone Dehumidification Design Supply Air Humidity Ratio {kgWater/kgDryAir}
  0.005,                                  !- Zone Cooling Design Supply Air Humidity Ratio Difference {kgWater/kgDryAir}
  HumidityRatioDifference,                !- Zone Latent Heating Design Supply Air Humidity Ratio Input Method
  ,                                       !- Zone Humidification Design Supply Air Humidity Ratio {kgWater/kgDryAir}
  0.005,                                  !- Zone Humidification Design Supply Air Humidity Ratio Difference {kgWater/kgDryAir}
  ,                                       !- Zone Humidistat Dehumidification Set Point Schedule Name
  ,                                       !- Zone Humidistat Humidification Set Point Schedule Name
  ,                                       !- Design Zone Air Distribution Effectiveness in Cooling Mode
  ,                                       !- Design Zone Air Distribution Effectiveness in Heating Mode
  ,                                       !- Design Zone Secondary Recirculation Fraction {dimensionless}
  ,                                       !- Design Minimum Zone Ventilation Efficiency {dimensionless}
  Coincident;                             !- Sizing Option

OS:ZoneHVAC:EquipmentList,
  {289754d9-e60e-402d-9fbf-4f4f34bb0722}, !- Handle
  Zone HVAC Equipment List 1,             !- Name
  {359fe365-964e-459e-b7cf-41acfdb1d5d0}, !- Thermal Zone
  ,                                       !- Load Distribution Scheme
  {cb63fcbd-be11-44e9-8158-b8119c5e12c8}, !- Zone Equipment 1
  1,                                      !- Zone Equipment Cooling Sequence 1
  1,                                      !- Zone Equipment Heating or No-Load Sequence 1
  {8b96e2fd-5985-4910-91eb-c8e53be5428d}, !- Zone Equipment Sequential Cooling Fraction Schedule Name 1
  {a96f041f-46c2-4c84-b540-702073650ce2}; !- Zone Equipment Sequential Heating Fraction Schedule Name 1

OS:AdditionalProperties,
  {dd394e52-5bc7-483c-abc1-e038f1018dc5}, !- Handle
  {359fe365-964e-459e-b7cf-41acfdb1d5d0}, !- Object Name
  ObjectType,                             !- Feature Name 1
  String,                                 !- Feature Data Type 1
  conditioned space;                      !- Feature Value 1

OS:Space,
  {d139042e-d430-4abf-a6e0-cee277be12dd}, !- Handle
  conditioned space 1,                    !- Name
  ,                                       !- Space Type Name
  ,                                       !- Default Construction Set Name
  ,                                       !- Default Schedule Set Name
  ,                                       !- Direction of Relative North {deg}
  ,                                       !- X Origin {m}
  ,                                       !- Y Origin {m}
  ,                                       !- Z Origin {m}
  ,                                       !- Building Story Name
  {359fe365-964e-459e-b7cf-41acfdb1d5d0}, !- Thermal Zone Name
  ,                                       !- Part of Total Floor Area
  ,                                       !- Design Specification Outdoor Air Object Name
  ,                                       !- Building Unit Name
  346.03186535424;                        !- Volume {m3}

OS:Schedule:Ruleset,
  {dab34f4b-4015-47c1-a04e-b721606510d1}, !- Handle
  heating setpoint,                       !- Name
  {81a55c1c-19bc-4cfe-ab1f-7ae33dfef142}, !- Schedule Type Limits Name
  {b59d7a25-ef3e-43c8-8641-509cd241d7ef}; !- Default Day Schedule Name

OS:Schedule:Day,
  {b59d7a25-ef3e-43c8-8641-509cd241d7ef}, !- Handle
  heating setpoint default day,           !- Name
  {81a55c1c-19bc-4cfe-ab1f-7ae33dfef142}, !- Schedule Type Limits Name
  ,                                       !- Interpolate to Timestep
  24,                                     !- Hour 1
  0,                                      !- Minute 1
  0;                                      !- Value Until Time 1

OS:Schedule:Rule,
  {e6a4393a-ff64-40c3-8c0e-af74c63a7150}, !- Handle
  heating setpoint allday rule,           !- Name
  {dab34f4b-4015-47c1-a04e-b721606510d1}, !- Schedule Ruleset Name
  0,                                      !- Rule Order
  {fb781110-3936-4f4d-af15-7d433056b0e1}, !- Day Schedule Name
  Yes,                                    !- Apply Sunday
  Yes,                                    !- Apply Monday
  Yes,                                    !- Apply Tuesday
  Yes,                                    !- Apply Wednesday
  Yes,                                    !- Apply Thursday
  Yes,                                    !- Apply Friday
  Yes,                                    !- Apply Saturday
  DateRange,                              !- Date Specification Type
  1,                                      !- Start Month
  1,                                      !- Start Day
  12,                                     !- End Month
  31;                                     !- End Day

OS:Schedule:Day,
  {fb781110-3936-4f4d-af15-7d433056b0e1}, !- Handle
  heating setpoint day,                   !- Name
  {81a55c1c-19bc-4cfe-ab1f-7ae33dfef142}, !- Schedule Type Limits Name
  ,                                       !- Interpolate to Timestep
  24,                                     !- Hour 1
  0,                                      !- Minute 1
  20;                                     !- Value Until Time 1

OS:Schedule:Ruleset,
  {3109d63a-364a-4dff-8aff-5a1b057047bd}, !- Handle
  cooling setpoint,                       !- Name
  {81a55c1c-19bc-4cfe-ab1f-7ae33dfef142}, !- Schedule Type Limits Name
  {a5c0b450-2506-49da-9736-9c2f52900645}; !- Default Day Schedule Name

OS:Schedule:Day,
  {a5c0b450-2506-49da-9736-9c2f52900645}, !- Handle
  cooling setpoint default day,           !- Name
  {81a55c1c-19bc-4cfe-ab1f-7ae33dfef142}, !- Schedule Type Limits Name
  ,                                       !- Interpolate to Timestep
  24,                                     !- Hour 1
  0,                                      !- Minute 1
  0;                                      !- Value Until Time 1

OS:Schedule:Rule,
  {830470ee-1b1e-4330-879e-3c6d279d347e}, !- Handle
  cooling setpoint allday rule,           !- Name
  {3109d63a-364a-4dff-8aff-5a1b057047bd}, !- Schedule Ruleset Name
  0,                                      !- Rule Order
  {989f41d2-c054-4650-a92b-d21a9affe895}, !- Day Schedule Name
  Yes,                                    !- Apply Sunday
  Yes,                                    !- Apply Monday
  Yes,                                    !- Apply Tuesday
  Yes,                                    !- Apply Wednesday
  Yes,                                    !- Apply Thursday
  Yes,                                    !- Apply Friday
  Yes,                                    !- Apply Saturday
  DateRange,                              !- Date Specification Type
  1,                                      !- Start Month
  1,                                      !- Start Day
  12,                                     !- End Month
  31;                                     !- End Day

OS:Schedule:Day,
  {989f41d2-c054-4650-a92b-d21a9affe895}, !- Handle
  cooling setpoint day,                   !- Name
  {81a55c1c-19bc-4cfe-ab1f-7ae33dfef142}, !- Schedule Type Limits Name
  ,                                       !- Interpolate to Timestep
  24,                                     !- Hour 1
  0,                                      !- Minute 1
  25.5555555555556;                       !- Value Until Time 1

OS:ThermostatSetpoint:DualSetpoint,
  {728f4513-a78b-491f-9828-b83f8591a718}, !- Handle
  conditioned space temperature setpoint, !- Name
  {dab34f4b-4015-47c1-a04e-b721606510d1}, !- Heating Setpoint Temperature Schedule Name
  {3109d63a-364a-4dff-8aff-5a1b057047bd}, !- Cooling Setpoint Temperature Schedule Name
  0;                                      !- Temperature Difference Between Cutout And Setpoint {deltaC}

OS:ScheduleTypeLimits,
  {81a55c1c-19bc-4cfe-ab1f-7ae33dfef142}, !- Handle
  Temperature,                            !- Name
  ,                                       !- Lower Limit Value
  ,                                       !- Upper Limit Value
  Continuous,                             !- Numeric Type
  Temperature;                            !- Unit Type

OS:Surface,
  {015fec85-754d-49f3-b121-52b608168b5e}, !- Handle
  Roof1,                                  !- Name
  RoofCeiling,                            !- Surface Type
  {8d040688-7d15-45c3-b3c6-033430e95174}, !- Construction Name
  {d139042e-d430-4abf-a6e0-cee277be12dd}, !- Space Name
  Outdoors,                               !- Outside Boundary Condition
  ,                                       !- Outside Boundary Condition Object
  SunExposed,                             !- Sun Exposure
  WindExposed,                            !- Wind Exposure
  ,                                       !- View Factor to Ground
  ,                                       !- Number of Vertices
  -22.0836375774516, 27.3802233774516, 2.4384, !- X,Y,Z Vertex 1 {m}
  -22.0836375774516, 20.8754743017685, 5.69077453784155, !- X,Y,Z Vertex 2 {m}
  -14.8111070225484, 20.8754743017685, 5.69077453784155, !- X,Y,Z Vertex 3 {m}
  -14.8111070225484, 27.3802233774516, 2.4384; !- X,Y,Z Vertex 4 {m}

OS:AdditionalProperties,
  {ae45ef95-b2a1-46f5-a7e0-5f107808c7f7}, !- Handle
  {015fec85-754d-49f3-b121-52b608168b5e}, !- Object Name
  Length,                                 !- Feature Name 1
  Double,                                 !- Feature Data Type 1
  23.860008382228202,                     !- Feature Value 1
  Width,                                  !- Feature Name 2
  Double,                                 !- Feature Data Type 2
  23.860008382228198,                     !- Feature Value 2
  Azimuth,                                !- Feature Name 3
  Integer,                                !- Feature Data Type 3
  0,                                      !- Feature Value 3
  Tilt,                                   !- Feature Name 4
  Double,                                 !- Feature Data Type 4
  0.5,                                    !- Feature Value 4
  SurfaceType,                            !- Feature Name 5
  String,                                 !- Feature Data Type 5
  Roof;                                   !- Feature Value 5

OS:Material,
  {edffa854-a417-4392-a3b8-06f0a1d2c169}, !- Handle
  asphalt or fiberglass shingles,         !- Name
  Rough,                                  !- Roughness
  0.00635,                                !- Thickness {m}
  0.162714,                               !- Conductivity {W/m-K}
  1121.4,                                 !- Density {kg/m3}
  1465.45,                                !- Specific Heat {J/kg-K}
  0.9,                                    !- Thermal Absorptance
  0.85,                                   !- Solar Absorptance
  0.85;                                   !- Visible Absorptance

OS:Material,
  {14496a27-0120-492d-9386-9efe44278a3b}, !- Handle
  roof stud and cavity,                   !- Name
  Rough,                                  !- Roughness
  0.0889,                                 !- Thickness {m}
  0.468249472857624,                      !- Conductivity {W/m-K}
  50.32683,                               !- Density {kg/m3}
  1063.80987585548,                       !- Specific Heat {J/kg-K}
  0.9,                                    !- Thermal Absorptance
  0.7,                                    !- Solar Absorptance
  0.7;                                    !- Visible Absorptance

OS:Material,
  {73b24968-04d3-486f-b92a-d235570466f2}, !- Handle
  gypsum board,                           !- Name
  Rough,                                  !- Roughness
  0.00254,                                !- Thickness {m}
  0.1602906,                              !- Conductivity {W/m-K}
  801,                                    !- Density {kg/m3}
  837.4,                                  !- Specific Heat {J/kg-K}
  0.9,                                    !- Thermal Absorptance
  0.6,                                    !- Solar Absorptance
  0.6;                                    !- Visible Absorptance

OS:Construction,
  {8d040688-7d15-45c3-b3c6-033430e95174}, !- Handle
  Roof1 construction,                     !- Name
  ,                                       !- Surface Rendering Name
  {edffa854-a417-4392-a3b8-06f0a1d2c169}, !- Layer 1
  {14496a27-0120-492d-9386-9efe44278a3b}, !- Layer 2
  {73b24968-04d3-486f-b92a-d235570466f2}; !- Layer 3

OS:Surface,
  {15184421-946e-4dfe-98fe-5293c80ef49c}, !- Handle
  Roof2,                                  !- Name
  RoofCeiling,                            !- Surface Type
  {a026d460-48ab-458f-8474-ef26e36e00c1}, !- Construction Name
  {d139042e-d430-4abf-a6e0-cee277be12dd}, !- Space Name
  Outdoors,                               !- Outside Boundary Condition
  ,                                       !- Outside Boundary Condition Object
  SunExposed,                             !- Sun Exposure
  WindExposed,                            !- Wind Exposure
  ,                                       !- View Factor to Ground
  ,                                       !- Number of Vertices
  -20.1076928225484, -27.3802233774516, 2.4384, !- X,Y,Z Vertex 1 {m}
  -20.1076928225484, -20.8754743017685, 5.69077453784155, !- X,Y,Z Vertex 2 {m}
  -27.3802233774516, -20.8754743017685, 5.69077453784155, !- X,Y,Z Vertex 3 {m}
  -27.3802233774516, -27.3802233774516, 2.4384; !- X,Y,Z Vertex 4 {m}

OS:AdditionalProperties,
  {300938f4-ca93-42c7-868b-b01b08c87659}, !- Handle
  {15184421-946e-4dfe-98fe-5293c80ef49c}, !- Object Name
  Length,                                 !- Feature Name 1
  Double,                                 !- Feature Data Type 1
  23.860008382228202,                     !- Feature Value 1
  Width,                                  !- Feature Name 2
  Double,                                 !- Feature Data Type 2
  23.860008382228198,                     !- Feature Value 2
  Azimuth,                                !- Feature Name 3
  Integer,                                !- Feature Data Type 3
  180,                                    !- Feature Value 3
  Tilt,                                   !- Feature Name 4
  Double,                                 !- Feature Data Type 4
  0.5,                                    !- Feature Value 4
  SurfaceType,                            !- Feature Name 5
  String,                                 !- Feature Data Type 5
  Roof;                                   !- Feature Value 5

OS:Construction,
  {a026d460-48ab-458f-8474-ef26e36e00c1}, !- Handle
  Roof2 construction,                     !- Name
  ,                                       !- Surface Rendering Name
  {edffa854-a417-4392-a3b8-06f0a1d2c169}, !- Layer 1
  {14496a27-0120-492d-9386-9efe44278a3b}, !- Layer 2
  {73b24968-04d3-486f-b92a-d235570466f2}; !- Layer 3

OS:Surface,
  {f30e1c6a-acb6-466d-a72b-eb09fa84c509}, !- Handle
  Wall1,                                  !- Name
  Wall,                                   !- Surface Type
  {5e34c588-0ff5-4a9c-b16d-c6d8ee93b392}, !- Construction Name
  {d139042e-d430-4abf-a6e0-cee277be12dd}, !- Space Name
  Outdoors,                               !- Outside Boundary Condition
  ,                                       !- Outside Boundary Condition Object
  SunExposed,                             !- Sun Exposure
  WindExposed,                            !- Wind Exposure
  ,                                       !- View Factor to Ground
  ,                                       !- Number of Vertices
  -26.4511929774516, 27.3802233774516, 0, !- X,Y,Z Vertex 1 {m}
  -26.4511929774516, 27.3802233774516, 4.8768, !- X,Y,Z Vertex 2 {m}
  -23.0126679774516, 27.3802233774516, 4.8768, !- X,Y,Z Vertex 3 {m}
  -23.0126679774516, 27.3802233774516, 0; !- X,Y,Z Vertex 4 {m}

OS:AdditionalProperties,
  {70814ca5-ebe3-4e7a-8118-2e8c8d8143eb}, !- Handle
  {f30e1c6a-acb6-466d-a72b-eb09fa84c509}, !- Object Name
  Length,                                 !- Feature Name 1
  Double,                                 !- Feature Data Type 1
  11.28125,                               !- Feature Value 1
  Azimuth,                                !- Feature Name 2
  Integer,                                !- Feature Data Type 2
  0,                                      !- Feature Value 2
  Tilt,                                   !- Feature Name 3
  Double,                                 !- Feature Data Type 3
  90,                                     !- Feature Value 3
  SurfaceType,                            !- Feature Name 4
  String,                                 !- Feature Data Type 4
  Wall;                                   !- Feature Value 4

OS:Material,
  {988f8c1a-0307-43f9-8630-333a89348fb3}, !- Handle
  wood siding,                            !- Name
  Rough,                                  !- Roughness
  0.0254,                                 !- Thickness {m}
  0.1024175,                              !- Conductivity {W/m-K}
  544.68,                                 !- Density {kg/m3}
  1172.36,                                !- Specific Heat {J/kg-K}
  0.9,                                    !- Thermal Absorptance
  0.7,                                    !- Solar Absorptance
  0.7;                                    !- Visible Absorptance

OS:Material,
  {38e1189b-ed3f-4a51-a43d-a52d6a3a1288}, !- Handle
  osb sheathing 0.5 in.,                  !- Name
  Rough,                                  !- Roughness
  0.0127,                                 !- Thickness {m}
  0.1154577,                              !- Conductivity {W/m-K}
  512.64,                                 !- Density {kg/m3}
  1214.23,                                !- Specific Heat {J/kg-K}
  0.9,                                    !- Thermal Absorptance
  0.7,                                    !- Solar Absorptance
  0.7;                                    !- Visible Absorptance

OS:Material,
  {2c0ae50d-2e17-44e4-8513-cf682f45defa}, !- Handle
  wall stud and cavity,                   !- Name
  Rough,                                  !- Roughness
  0.1397,                                 !- Thickness {m}
  0.0929021674204099,                     !- Conductivity {W/m-K}
  139.0536,                               !- Density {kg/m3}
  1170.23755760369,                       !- Specific Heat {J/kg-K}
  0.9,                                    !- Thermal Absorptance
  0.7,                                    !- Solar Absorptance