
OS:Version,
  {6ba61b38-9293-4335-989b-0f5bcbf507cb}, !- Handle
  3.10.0;                                 !- Version Identifier

OS:SimulationControl,
  {de912955-1756-478a-8fe7-ec00e3221154}, !- Handle
  ,                                       !- Do Zone Sizing Calculation
  ,                                       !- Do System Sizing Calculation
  ,                                       !- Do Plant Sizing Calculation
  No;                                     !- Run Simulation for Sizing Periods

OS:Timestep,
  {71820f12-88dd-43f3-93f8-4e219c9d6661}, !- Handle
  1;                                      !- Number of Timesteps per Hour

OS:ShadowCalculation,
  {8344fa16-0bb7-4a0e-ba94-e16ec14d1773}, !- Handle
  PolygonClipping,                        !- Shading Calculation Method
  ,                                       !- Shading Calculation Update Frequency Method
  20,                                     !- Shading Calculation Update Frequency
  200,                                    !- Maximum Figures in Shadow Overlap Calculations
  ,                                       !- Polygon Clipping Algorithm
  512,                                    !- Pixel Counting Resolution
  ,                                       !- Sky Diffuse Modeling Algorithm
  No,                                     !- Output External Shading Calculation Results
  No,                                     !- Disable Self-Shading Within Shading Zone Groups
  No;                                     !- Disable Self-Shading From Shading Zone Groups to Other Zones

OS:SurfaceConvectionAlgorithm:Outside,
  {b5602add-7df5-42c2-9a96-bbbb24a2bbb0}, !- Handle
  DOE-2;                                  !- Algorithm

OS:SurfaceConvectionAlgorithm:Inside,
  {1c873c84-be93-4466-95ac-2ca185669c28}, !- Handle
  TARP;                                   !- Algorithm

OS:ZoneCapacitanceMultiplier:ResearchSpecial,
  {9d35c5e3-36c2-4614-91da-31330ffe962a}, !- Handle
  7,                                      !- Temperature Capacity Multiplier
  15,                                     !- Humidity Capacity Multiplier
  ;                                       !- Carbon Dioxide Capacity Multiplier

OS:ConvergenceLimits,
  {7933138c-38c8-4b63-821d-943a816d28f5}, !- Handle
  0;                                      !- Minimum System Timestep {minutes}

OS:RunPeriod,
  {af3be22b-15d6-487c-8f8f-32cf39d16d01}, !- Handle
  Run Period 1,                           !- Name
  1,                                      !- Begin Month
  1,                                      !- Begin Day of Month
  12,                                     !- End Month
  31,                                     !- End Day of Month
  ,                                       !- Use Weather File Holidays and Special Days
  ,                                       !- Use Weather File Daylight Saving Period
  ,                                       !- Apply Weekend Holiday Rule
  ,                                       !- Use Weather File Rain Indicators
  ,                                       !- Use Weather File Snow Indicators
  ;                                       !- Number of Times Runperiod to be Repeated

OS:PerformancePrecisionTradeoffs,
  {6e6f1361-ec0a-4a1e-a261-06c4c1a7f15e}, !- Handle
  ,                                       !- Use Coil Direct Solutions
  CarrollMRT;                             !- Zone Radiant Exchange Algorithm

OS:WeatherFile,
  {6b8bc137-a152-4d51-a0a4-d057b61e2aba}, !- Handle
  Buffalo Niagara Intl Ap,                !- City
  NY,                                     !- State Province Region
  USA,                                    !- Country
  TMY3,                                   !- Data Source
  725280,                                 !- WMO Number
  42.93,                                  !- Latitude {deg}
  -78.73,                                 !- Longitude {deg}
  -5,                                     !- Time Zone {hr}
  215,                                    !- Elevation {m}
  /Users/nmoore/github/urbanopt-example-geojson-project/example_project/weather/USA_NY_Buffalo-Greater.Buffalo.Intl.AP.725280_TMY3.epw, !- Url
  6B50E0FF,                               !- Checksum
  ,                                       !- Start Date Actual Year
  Sunday;                                 !- Start Day of Week

OS:YearDescription,
  {cf458966-7504-4d40-b334-4a536c6ab844}, !- Handle
  2007,                                   !- Calendar Year
  ,                                       !- Day of Week for Start Day
  ;                                       !- Is Leap Year

OS:Site,
  {21868b46-aa04-4682-9f4b-cf8dad12f2d6}, !- Handle
  Buffalo Niagara Intl Ap_NY,             !- Name
  42.93,                                  !- Latitude {deg}
  -78.73,                                 !- Longitude {deg}
  -5,                                     !- Time Zone {hr}
  215,                                    !- Elevation {m}
  Suburbs,                                !- Terrain
  Yes;                                    !- Keep Site Location Information

OS:RunPeriodControl:DaylightSavingTime,
  {281b710a-8335-4bea-85dd-2dcfd0495860}, !- Handle
  Mar 12,                                 !- Start Date
  Nov 5;                                  !- End Date

OS:Site:GroundTemperature:Shallow,
  {3bc0f40e-0384-4f24-8340-674e67e9eb75}, !- Handle
  4.30207395723828,                       !- January Surface Ground Temperature {C}
  2.29327249652502,                       !- February Surface Ground Temperature {C}
  2.13240047156047,                       !- March Surface Ground Temperature {C}
  3.08567940719286,                       !- April Surface Ground Temperature {C}
  6.91256312497526,                       !- May Surface Ground Temperature {C}
  10.7216195949507,                       !- June Surface Ground Temperature {C}
  14.0238679822574,                       !- July Surface Ground Temperature {C}
  16.1157611184724,                       !- August Surface Ground Temperature {C}
  16.2934789303462,                       !- September Surface Ground Temperature {C}
  14.5920754632847,                       !- October Surface Ground Temperature {C}
  11.374036348653,                        !- November Surface Ground Temperature {C}
  7.68182621661674;                       !- December Surface Ground Temperature {C}

OS:ThermalZone,
  {962b7f1e-8753-4e6c-bb53-2fde943e9b96}, !- Handle
  conditioned space,                      !- Name
  1,                                      !- Multiplier
  ,                                       !- Ceiling Height {m}
  692.06373070848,                        !- Volume {m3}
  ,                                       !- Floor Area {m2}
  ,                                       !- Zone Inside Convection Algorithm
  ,                                       !- Zone Outside Convection Algorithm
  ,                                       !- Zone Conditioning Equipment List Name
  {0e26010a-15b9-466c-9981-a5476eb74ba9}, !- Zone Air Inlet Port List
  {72b5e5cb-44da-4a15-9c8d-203526d315d5}, !- Zone Air Exhaust Port List
  {cd391a59-2e73-40d4-8ea2-79f03511ba81}, !- Zone Air Node Name
  {2b3083fe-2e4b-4252-80e2-a4fae95fdb11}, !- Zone Return Air Port List
  ,                                       !- Primary Daylighting Control Name
  ,                                       !- Fraction of Zone Controlled by Primary Daylighting Control
  ,                                       !- Secondary Daylighting Control Name
  ,                                       !- Fraction of Zone Controlled by Secondary Daylighting Control
  ,                                       !- Illuminance Map Name
  ,                                       !- Group Rendering Name
  {06103cad-be8c-42fc-a9ba-b4f83fbcf3ae}, !- Thermostat Name
  No;                                     !- Use Ideal Air Loads

OS:Node,
  {8a094226-604f-4d97-b5ac-446d6b32d35e}, !- Handle
  Node 1,                                 !- Name
  {cd391a59-2e73-40d4-8ea2-79f03511ba81}, !- Inlet Port
  ;                                       !- Outlet Port

OS:Connection,
  {cd391a59-2e73-40d4-8ea2-79f03511ba81}, !- Handle
  {962b7f1e-8753-4e6c-bb53-2fde943e9b96}, !- Source Object
  11,                                     !- Outlet Port
  {8a094226-604f-4d97-b5ac-446d6b32d35e}, !- Target Object
  2;                                      !- Inlet Port

OS:PortList,
  {0e26010a-15b9-466c-9981-a5476eb74ba9}, !- Handle
  {962b7f1e-8753-4e6c-bb53-2fde943e9b96}, !- HVAC Component
  {bfb88f81-ad35-4f44-ad5d-485cd80eebac}, !- Port 1
  {818b7448-f1a5-49c7-a6d1-98db551f52f2}; !- Port 2

OS:PortList,
  {72b5e5cb-44da-4a15-9c8d-203526d315d5}, !- Handle
  {962b7f1e-8753-4e6c-bb53-2fde943e9b96}; !- HVAC Component

OS:PortList,
  {2b3083fe-2e4b-4252-80e2-a4fae95fdb11}, !- Handle
  {962b7f1e-8753-4e6c-bb53-2fde943e9b96}, !- HVAC Component
  {193d7b29-ea39-4431-ae19-76c4bdfb4d34}, !- Port 1
  {3e812bde-8d46-46f8-94a6-2e2a86626229}; !- Port 2

OS:Sizing:Zone,
  {a2c38ede-5e9a-4c23-b0e7-7682acee07e0}, !- Handle
  {962b7f1e-8753-4e6c-bb53-2fde943e9b96}, !- Zone or ZoneList Name
  SupplyAirTemperature,                   !- Zone Cooling Design Supply Air Temperature Input Method
  14,                                     !- Zone Cooling Design Supply Air Temperature {C}
  11.11,                                  !- Zone Cooling Design Supply Air Temperature Difference {deltaC}
  SupplyAirTemperature,                   !- Zone Heating Design Supply Air Temperature Input Method
  40,                                     !- Zone Heating Design Supply Air Temperature {C}
  11.11,                                  !- Zone Heating Design Supply Air Temperature Difference {deltaC}
  0.0085,                                 !- Zone Cooling Design Supply Air Humidity Ratio {kg-H2O/kg-air}
  0.008,                                  !- Zone Heating Design Supply Air Humidity Ratio {kg-H2O/kg-air}
  ,                                       !- Zone Heating Sizing Factor
  ,                                       !- Zone Cooling Sizing Factor
  DesignDay,                              !- Cooling Design Air Flow Method
  ,                                       !- Cooling Design Air Flow Rate {m3/s}
  ,                                       !- Cooling Minimum Air Flow per Zone Floor Area {m3/s-m2}
  ,                                       !- Cooling Minimum Air Flow {m3/s}
  ,                                       !- Cooling Minimum Air Flow Fraction
  DesignDay,                              !- Heating Design Air Flow Method
  ,                                       !- Heating Design Air Flow Rate {m3/s}
  ,                                       !- Heating Maximum Air Flow per Zone Floor Area {m3/s-m2}
  ,                                       !- Heating Maximum Air Flow {m3/s}
  ,                                       !- Heating Maximum Air Flow Fraction
  No,                                     !- Account for Dedicated Outdoor Air System
  NeutralSupplyAir,                       !- Dedicated Outdoor Air System Control Strategy
  autosize,                               !- Dedicated Outdoor Air Low Setpoint Temperature for Design {C}
  autosize,                               !- Dedicated Outdoor Air High Setpoint Temperature for Design {C}
  Sensible Load Only No Latent Load,      !- Zone Load Sizing Method
  HumidityRatioDifference,                !- Zone Latent Cooling Design Supply Air Humidity Ratio Input Method
  ,                                       !- Zone Dehumidification Design Supply Air Humidity Ratio {kgWater/kgDryAir}
  0.005,                                  !- Zone Cooling Design Supply Air Humidity Ratio Difference {kgWater/kgDryAir}
  HumidityRatioDifference,                !- Zone Latent Heating Design Supply Air Humidity Ratio Input Method
  ,                                       !- Zone Humidification Design Supply Air Humidity Ratio {kgWater/kgDryAir}
  0.005,                                  !- Zone Humidification Design Supply Air Humidity Ratio Difference {kgWater/kgDryAir}
  ,                                       !- Zone Humidistat Dehumidification Set Point Schedule Name
  ,                                       !- Zone Humidistat Humidification Set Point Schedule Name
  ,                                       !- Design Zone Air Distribution Effectiveness in Cooling Mode
  ,                                       !- Design Zone Air Distribution Effectiveness in Heating Mode
  ,                                       !- Design Zone Secondary Recirculation Fraction {dimensionless}
  ,                                       !- Design Minimum Zone Ventilation Efficiency {dimensionless}
  Coincident;                             !- Sizing Option

OS:ZoneHVAC:EquipmentList,
  {e843dc5f-3b2b-4193-95e0-ce30db255db4}, !- Handle
  Zone HVAC Equipment List 1,             !- Name
  {962b7f1e-8753-4e6c-bb53-2fde943e9b96}, !- Thermal Zone
  ,                                       !- Load Distribution Scheme
  {bd5bf54e-c3bf-4d79-b013-7b4e6c8bccff}, !- Zone Equipment 1
  1,                                      !- Zone Equipment Cooling Sequence 1
  1,                                      !- Zone Equipment Heating or No-Load Sequence 1
  {5d57e4ee-4a59-43ca-8772-9ac974ab70eb}, !- Zone Equipment Sequential Cooling Fraction Schedule Name 1
  {3cdd3911-3059-4fc9-9f10-0cafa35cbe65}, !- Zone Equipment Sequential Heating Fraction Schedule Name 1
  {5dfe91df-719f-4106-bf0d-02056c2496f7}, !- Zone Equipment 2
  2,                                      !- Zone Equipment Cooling Sequence 2
  2,                                      !- Zone Equipment Heating or No-Load Sequence 2
  {953e132d-6242-493d-b120-0226f44fcf18}, !- Zone Equipment Sequential Cooling Fraction Schedule Name 2
  {3d6fff07-4632-48e9-be1d-397d27466231}; !- Zone Equipment Sequential Heating Fraction Schedule Name 2

OS:AdditionalProperties,
  {ab867e22-c9fd-4e84-a7aa-57a4f3e7017b}, !- Handle
  {962b7f1e-8753-4e6c-bb53-2fde943e9b96}, !- Object Name
  ObjectType,                             !- Feature Name 1
  String,                                 !- Feature Data Type 1
  conditioned space;                      !- Feature Value 1

OS:Space,
  {3db9850e-33ce-41e1-98eb-4fe11773e9d3}, !- Handle
  conditioned space 1,                    !- Name
  ,                                       !- Space Type Name
  ,                                       !- Default Construction Set Name
  ,                                       !- Default Schedule Set Name
  ,                                       !- Direction of Relative North {deg}
  ,                                       !- X Origin {m}
  ,                                       !- Y Origin {m}
  ,                                       !- Z Origin {m}
  ,                                       !- Building Story Name
  {962b7f1e-8753-4e6c-bb53-2fde943e9b96}, !- Thermal Zone Name
  ,                                       !- Part of Total Floor Area
  ,                                       !- Design Specification Outdoor Air Object Name
  ,                                       !- Building Unit Name
  692.06373070848;                        !- Volume {m3}

OS:Schedule:Ruleset,
  {07eddf75-2422-4d9b-9acd-ea0504bd3f26}, !- Handle
  heating setpoint,                       !- Name
  {ca3adb18-631c-44bc-a8b7-ab7baa867fa8}, !- Schedule Type Limits Name
  {bb2c5265-ca47-47d2-a712-9fabca74f7d5}; !- Default Day Schedule Name

OS:Schedule:Day,
  {bb2c5265-ca47-47d2-a712-9fabca74f7d5}, !- Handle
  heating setpoint default day,           !- Name
  {ca3adb18-631c-44bc-a8b7-ab7baa867fa8}, !- Schedule Type Limits Name
  ,                                       !- Interpolate to Timestep
  24,                                     !- Hour 1
  0,                                      !- Minute 1
  0;                                      !- Value Until Time 1

OS:Schedule:Rule,
  {d98414b1-c701-4655-bc8b-1cf6fd568637}, !- Handle
  heating setpoint allday rule,           !- Name
  {07eddf75-2422-4d9b-9acd-ea0504bd3f26}, !- Schedule Ruleset Name
  0,                                      !- Rule Order
  {bb16c4a5-1bbd-46f7-8c89-32b1fec5b170}, !- Day Schedule Name
  Yes,                                    !- Apply Sunday
  Yes,                                    !- Apply Monday
  Yes,                                    !- Apply Tuesday
  Yes,                                    !- Apply Wednesday
  Yes,                                    !- Apply Thursday
  Yes,                                    !- Apply Friday
  Yes,                                    !- Apply Saturday
  DateRange,                              !- Date Specification Type
  1,                                      !- Start Month
  1,                                      !- Start Day
  12,                                     !- End Month
  31;                                     !- End Day

OS:Schedule:Day,
  {bb16c4a5-1bbd-46f7-8c89-32b1fec5b170}, !- Handle
  heating setpoint day,                   !- Name
  {ca3adb18-631c-44bc-a8b7-ab7baa867fa8}, !- Schedule Type Limits Name
  ,                                       !- Interpolate to Timestep
  24,                                     !- Hour 1
  0,                                      !- Minute 1
  20;                                     !- Value Until Time 1

OS:Schedule:Ruleset,
  {defde963-6ef9-4e11-9da4-0e1b2d6298b4}, !- Handle
  cooling setpoint,                       !- Name
  {ca3adb18-631c-44bc-a8b7-ab7baa867fa8}, !- Schedule Type Limits Name
  {5f4324a4-76be-4c4c-9863-52775ba85fee}; !- Default Day Schedule Name

OS:Schedule:Day,
  {5f4324a4-76be-4c4c-9863-52775ba85fee}, !- Handle
  cooling setpoint default day,           !- Name
  {ca3adb18-631c-44bc-a8b7-ab7baa867fa8}, !- Schedule Type Limits Name
  ,                                       !- Interpolate to Timestep
  24,                                     !- Hour 1
  0,                                      !- Minute 1
  0;                                      !- Value Until Time 1

OS:Schedule:Rule,
  {ad5ac216-edd5-433c-8798-d64edddbe5d8}, !- Handle
  cooling setpoint allday rule,           !- Name
  {defde963-6ef9-4e11-9da4-0e1b2d6298b4}, !- Schedule Ruleset Name
  0,                                      !- Rule Order
  {65b500c7-04f2-4262-b328-3cf05345cbd4}, !- Day Schedule Name
  Yes,                                    !- Apply Sunday
  Yes,                                    !- Apply Monday
  Yes,                                    !- Apply Tuesday
  Yes,                                    !- Apply Wednesday
  Yes,                                    !- Apply Thursday
  Yes,                                    !- Apply Friday
  Yes,                                    !- Apply Saturday
  DateRange,                              !- Date Specification Type
  1,                                      !- Start Month
  1,                                      !- Start Day
  12,                                     !- End Month
  31;                                     !- End Day

OS:Schedule:Day,
  {65b500c7-04f2-4262-b328-3cf05345cbd4}, !- Handle
  cooling setpoint day,                   !- Name
  {ca3adb18-631c-44bc-a8b7-ab7baa867fa8}, !- Schedule Type Limits Name
  ,                                       !- Interpolate to Timestep
  24,                                     !- Hour 1
  0,                                      !- Minute 1
  25.5555555555556;                       !- Value Until Time 1

OS:ThermostatSetpoint:DualSetpoint,
  {06103cad-be8c-42fc-a9ba-b4f83fbcf3ae}, !- Handle
  conditioned space temperature setpoint, !- Name
  {07eddf75-2422-4d9b-9acd-ea0504bd3f26}, !- Heating Setpoint Temperature Schedule Name
  {defde963-6ef9-4e11-9da4-0e1b2d6298b4}, !- Cooling Setpoint Temperature Schedule Name
  0;                                      !- Temperature Difference Between Cutout And Setpoint {deltaC}

OS:ScheduleTypeLimits,
  {ca3adb18-631c-44bc-a8b7-ab7baa867fa8}, !- Handle
  Temperature,                            !- Name
  ,                                       !- Lower Limit Value
  ,                                       !- Upper Limit Value
  Continuous,                             !- Numeric Type
  Temperature;                            !- Unit Type

OS:Surface,
  {62791b6e-cb6c-411c-9614-0a6d279a2f67}, !- Handle
  Roof1,                                  !- Name
  RoofCeiling,                            !- Surface Type
  {7ec1076f-a459-45ed-916e-adb5625a8ae3}, !- Construction Name
  {37cd65a2-de1e-4914-aca0-de4a3de3c9ae}, !- Space Name
  Outdoors,                               !- Outside Boundary Condition
  ,                                       !- Outside Boundary Condition Object
  SunExposed,                             !- Sun Exposure
  WindExposed,                            !- Wind Exposure
  ,                                       !- View Factor to Ground
  ,                                       !- Number of Vertices
  -26.9347048849634, 58.0557891618865, 2.4384, !- X,Y,Z Vertex 1 {m}
  -26.9347048849634, 46.7895631136661, 8.0715130241102, !- X,Y,Z Vertex 2 {m}
  -14.3386812381136, 46.7895631136661, 8.0715130241102, !- X,Y,Z Vertex 3 {m}
  -14.3386812381136, 58.0557891618865, 2.4384; !- X,Y,Z Vertex 4 {m}

OS:AdditionalProperties,
  {147af959-568d-4cd6-a192-660fe1f7735a}, !- Handle
  {62791b6e-cb6c-411c-9614-0a6d279a2f67}, !- Object Name
  Length,                                 !- Feature Name 1
  Double,                                 !- Feature Data Type 1
  41.325536899113608,                     !- Feature Value 1
  Width,                                  !- Feature Name 2
  Double,                                 !- Feature Data Type 2
  41.325536899113601,                     !- Feature Value 2
  Azimuth,                                !- Feature Name 3
  Integer,                                !- Feature Data Type 3
  0,                                      !- Feature Value 3
  Tilt,                                   !- Feature Name 4
  Double,                                 !- Feature Data Type 4
  0.5,                                    !- Feature Value 4
  SurfaceType,                            !- Feature Name 5
  String,                                 !- Feature Data Type 5
  Roof;                                   !- Feature Value 5

OS:ThermalZone,
  {323fcca3-f42f-47ba-aef4-0c0a956e62d0}, !- Handle
  attic - vented,                         !- Name
  1,                                      !- Multiplier
  ,                                       !- Ceiling Height {m}
  356.390921899745,                       !- Volume {m3}
  ,                                       !- Floor Area {m2}
  ,                                       !- Zone Inside Convection Algorithm
  ,                                       !- Zone Outside Convection Algorithm
  ,                                       !- Zone Conditioning Equipment List Name
  {acdbcb93-4ae2-48d4-a12e-6758017456b3}, !- Zone Air Inlet Port List
  {91641a77-bcbd-47ce-b630-d6e9947655a6}, !- Zone Air Exhaust Port List
  {f40f2be3-4bc8-4851-a9e3-e1f2f8ed0c2e}, !- Zone Air Node Name
  {ba2910b8-dd60-4f34-b849-c42f65077913}, !- Zone Return Air Port List
  ,                                       !- Primary Daylighting Control Name
  ,                                       !- Fraction of Zone Controlled by Primary Daylighting Control
  ,                                       !- Secondary Daylighting Control Name
  ,                                       !- Fraction of Zone Controlled by Secondary Daylighting Control
  ,                                       !- Illuminance Map Name
  ,                                       !- Group Rendering Name
  ,                                       !- Thermostat Name
  No;                                     !- Use Ideal Air Loads

OS:Node,
  {c827fe56-908b-4419-8036-6af0dd40e883}, !- Handle
  Node 2,                                 !- Name
  {f40f2be3-4bc8-4851-a9e3-e1f2f8ed0c2e}, !- Inlet Port
  ;                                       !- Outlet Port

OS:Connection,
  {f40f2be3-4bc8-4851-a9e3-e1f2f8ed0c2e}, !- Handle
  {323fcca3-f42f-47ba-aef4-0c0a956e62d0}, !- Source Object
  11,                                     !- Outlet Port
  {c827fe56-908b-4419-8036-6af0dd40e883}, !- Target Object
  2;                                      !- Inlet Port

OS:PortList,
  {acdbcb93-4ae2-48d4-a12e-6758017456b3}, !- Handle
  {323fcca3-f42f-47ba-aef4-0c0a956e62d0}; !- HVAC Component

OS:PortList,
  {91641a77-bcbd-47ce-b630-d6e9947655a6}, !- Handle
  {323fcca3-f42f-47ba-aef4-0c0a956e62d0}; !- HVAC Component

OS:PortList,
  {ba2910b8-dd60-4f34-b849-c42f65077913}, !- Handle
  {323fcca3-f42f-47ba-aef4-0c0a956e62d0}; !- HVAC Component

OS:Sizing:Zone,
  {1c8706aa-cb73-4737-b202-96609b67e0c8}, !- Handle
  {323fcca3-f42f-47ba-aef4-0c0a956e62d0}, !- Zone or ZoneList Name
  SupplyAirTemperature,                   !- Zone Cooling Design Supply Air Temperature Input Method
  14,                                     !- Zone Cooling Design Supply Air Temperature {C}
  11.11,                                  !- Zone Cooling Design Supply Air Temperature Difference {deltaC}
  SupplyAirTemperature,                   !- Zone Heating Design Supply Air Temperature Input Method
  40,                                     !- Zone Heating Design Supply Air Temperature {C}
  11.11,                                  !- Zone Heating Design Supply Air Temperature Difference {deltaC}
  0.0085,                                 !- Zone Cooling Design Supply Air Humidity Ratio {kg-H2O/kg-air}
  0.008,                                  !- Zone Heating Design Supply Air Humidity Ratio {kg-H2O/kg-air}
  ,                                       !- Zone Heating Sizing Factor
  ,                                       !- Zone Cooling Sizing Factor
  DesignDay,                              !- Cooling Design Air Flow Method
  ,                                       !- Cooling Design Air Flow Rate {m3/s}
  ,                                       !- Cooling Minimum Air Flow per Zone Floor Area {m3/s-m2}
  ,                                       !- Cooling Minimum Air Flow {m3/s}
  ,                                       !- Cooling Minimum Air Flow Fraction
  DesignDay,                              !- Heating Design Air Flow Method
  ,                                       !- Heating Design Air Flow Rate {m3/s}
  ,                                       !- Heating Maximum Air Flow per Zone Floor Area {m3/s-m2}
  ,                                       !- Heating Maximum Air Flow {m3/s}
  ,                                       !- Heating Maximum Air Flow Fraction
  No,                                     !- Account for Dedicated Outdoor Air System
  NeutralSupplyAir,                       !- Dedicated Outdoor Air System Control Strategy
  autosize,                               !- Dedicated Outdoor Air Low Setpoint Temperature for Design {C}
  autosize,                               !- Dedicated Outdoor Air High Setpoint Temperature for Design {C}
  Sensible Load Only No Latent Load,      !- Zone Load Sizing Method
  HumidityRatioDifference,                !- Zone Latent Cooling Design Supply Air Humidity Ratio Input Method
  ,                                       !- Zone Dehumidification Design Supply Air Humidity Ratio {kgWater/kgDryAir}
  0.005,                                  !- Zone Cooling Design Supply Air Humidity Ratio Difference {kgWater/kgDryAir}
  HumidityRatioDifference,                !- Zone Latent Heating Design Supply Air Humidity Ratio Input Method
  ,                                       !- Zone Humidification Design Supply Air Humidity Ratio {kgWater/kgDryAir}
  0.005,                                  !- Zone Humidification Design Supply Air Humidity Ratio Difference {kgWater/kgDryAir}
  ,                                       !- Zone Humidistat Dehumidification Set Point Schedule Name
  ,                                       !- Zone Humidistat Humidification Set Point Schedule Name
  ,                                       !- Design Zone Air Distribution Effectiveness in Cooling Mode
  ,                                       !- Design Zone Air Distribution Effectiveness in Heating Mode
  ,                                       !- Design Zone Secondary Recirculation Fraction {dimensionless}
  ,                                       !- Design Minimum Zone Ventilation Efficiency {dimensionless}
  Coincident;                             !- Sizing Option

OS:ZoneHVAC:EquipmentList,
  {b970693f-7b8c-42c8-94df-273668b3c76a}, !- Handle
  Zone HVAC Equipment List 2,             !- Name
  {323fcca3-f42f-47ba-aef4-0c0a956e62d0}; !- Thermal Zone

OS:AdditionalProperties,
  {f387890b-5036-4ff5-b07e-029c32149eab}, !- Handle
  {323fcca3-f42f-47ba-aef4-0c0a956e62d0}, !- Object Name
  ObjectType,                             !- Feature Name 1
  String,                                 !- Feature Data Type 1
  attic - vented;                         !- Feature Value 1

OS:Space,
  {37cd65a2-de1e-4914-aca0-de4a3de3c9ae}, !- Handle
  attic - vented 1,                       !- Name
  ,                                       !- Space Type Name
  ,                                       !- Default Construction Set Name
  ,                                       !- Default Schedule Set Name
  ,                                       !- Direction of Relative North {deg}
  ,                                       !- X Origin {m}
  ,                                       !- Y Origin {m}
  ,                                       !- Z Origin {m}
  ,                                       !- Building Story Name
  {323fcca3-f42f-47ba-aef4-0c0a956e62d0}, !- Thermal Zone Name
  ,                                       !- Part of Total Floor Area
  ,                                       !- Design Specification Outdoor Air Object Name
  ,                                       !- Building Unit Name
  356.390921899745;                       !- Volume {m3}

OS:Material,