
OS:Version,
  {1532e059-3cdc-4f03-b439-a97ae6e75d60}, !- Handle
  3.9.0;                                  !- Version Identifier

OS:SimulationControl,
  {47602882-5545-4a00-b9e4-8efe76bdd563}, !- Handle
  ,                                       !- Do Zone Sizing Calculation
  ,                                       !- Do System Sizing Calculation
  ,                                       !- Do Plant Sizing Calculation
  No;                                     !- Run Simulation for Sizing Periods

OS:Timestep,
  {98ee0ed0-ecee-4109-990e-fdaae2cd83fa}, !- Handle
  1;                                      !- Number of Timesteps per Hour

OS:ShadowCalculation,
  {67e55f24-86d1-439f-bb69-9d9140e13e9f}, !- Handle
  PolygonClipping,                        !- Shading Calculation Method
  ,                                       !- Shading Calculation Update Frequency Method
  20,                                     !- Shading Calculation Update Frequency
  200,                                    !- Maximum Figures in Shadow Overlap Calculations
  ,                                       !- Polygon Clipping Algorithm
  512,                                    !- Pixel Counting Resolution
  ,                                       !- Sky Diffuse Modeling Algorithm
  No,                                     !- Output External Shading Calculation Results
  No,                                     !- Disable Self-Shading Within Shading Zone Groups
  No;                                     !- Disable Self-Shading From Shading Zone Groups to Other Zones

OS:SurfaceConvectionAlgorithm:Outside,
  {48b59630-e9d2-4c50-b82a-b28b5f1b449a}, !- Handle
  DOE-2;                                  !- Algorithm

OS:SurfaceConvectionAlgorithm:Inside,
  {7da5843d-2567-4871-bbf4-0f9e94473916}, !- Handle
  TARP;                                   !- Algorithm

OS:ZoneCapacitanceMultiplier:ResearchSpecial,
  {b5ecf78b-eed9-4576-b287-9b220e259bb2}, !- Handle
  7,                                      !- Temperature Capacity Multiplier
  15,                                     !- Humidity Capacity Multiplier
  ;                                       !- Carbon Dioxide Capacity Multiplier

OS:ConvergenceLimits,
  {2a6d3050-304c-43b0-b2f0-e5869116ee3f}, !- Handle
  0;                                      !- Minimum System Timestep {minutes}

OS:RunPeriod,
  {ad1aa5e5-c8b8-4bd0-9550-acfcf7991086}, !- Handle
  Run Period 1,                           !- Name
  1,                                      !- Begin Month
  1,                                      !- Begin Day of Month
  12,                                     !- End Month
  31,                                     !- End Day of Month
  ,                                       !- Use Weather File Holidays and Special Days
  ,                                       !- Use Weather File Daylight Saving Period
  ,                                       !- Apply Weekend Holiday Rule
  ,                                       !- Use Weather File Rain Indicators
  ,                                       !- Use Weather File Snow Indicators
  ;                                       !- Number of Times Runperiod to be Repeated

OS:PerformancePrecisionTradeoffs,
  {e4a620ab-5ed5-48fe-84f5-5721c8fcf60e}, !- Handle
  ,                                       !- Use Coil Direct Solutions
  CarrollMRT;                             !- Zone Radiant Exchange Algorithm

OS:WeatherFile,
  {6da5efee-3602-4d30-957e-7e46710ae940}, !- Handle
  Buffalo Niagara Intl Ap,                !- City
  NY,                                     !- State Province Region
  USA,                                    !- Country
  TMY3,                                   !- Data Source
  725280,                                 !- WMO Number
  42.93,                                  !- Latitude {deg}
  -78.73,                                 !- Longitude {deg}
  -5,                                     !- Time Zone {hr}
  215,                                    !- Elevation {m}
  /Users/nmoore/github/urbanopt-example-geojson-project/example_project/weather/USA_NY_Buffalo-Greater.Buffalo.Intl.AP.725280_TMY3.epw, !- Url
  6B50E0FF,                               !- Checksum
  ,                                       !- Start Date Actual Year
  Sunday;                                 !- Start Day of Week

OS:YearDescription,
  {f0db58df-3605-4700-b014-b5900769b899}, !- Handle
  2007,                                   !- Calendar Year
  ,                                       !- Day of Week for Start Day
  ;                                       !- Is Leap Year

OS:Site,
  {92466865-ec17-424c-8375-871c68f5bfc3}, !- Handle
  Buffalo Niagara Intl Ap_NY,             !- Name
  42.93,                                  !- Latitude {deg}
  -78.73,                                 !- Longitude {deg}
  -5,                                     !- Time Zone {hr}
  215,                                    !- Elevation {m}
  Suburbs,                                !- Terrain
  Yes;                                    !- Keep Site Location Information

OS:RunPeriodControl:DaylightSavingTime,
  {2ad3a535-d36f-410e-94af-39992a00f117}, !- Handle
  Mar 12,                                 !- Start Date
  Nov 5;                                  !- End Date

OS:Site:GroundTemperature:Shallow,
  {734f85f4-f46d-489f-85cd-94d675c8922a}, !- Handle
  4.30207395723828,                       !- January Surface Ground Temperature {C}
  2.29327249652502,                       !- February Surface Ground Temperature {C}
  2.13240047156047,                       !- March Surface Ground Temperature {C}
  3.08567940719286,                       !- April Surface Ground Temperature {C}
  6.91256312497526,                       !- May Surface Ground Temperature {C}
  10.7216195949507,                       !- June Surface Ground Temperature {C}
  14.0238679822574,                       !- July Surface Ground Temperature {C}
  16.1157611184724,                       !- August Surface Ground Temperature {C}
  16.2934789303462,                       !- September Surface Ground Temperature {C}
  14.5920754632847,                       !- October Surface Ground Temperature {C}
  11.374036348653,                        !- November Surface Ground Temperature {C}
  7.68182621661674;                       !- December Surface Ground Temperature {C}

OS:ThermalZone,
  {d844aa36-ed58-4afe-8aac-735e376531a4}, !- Handle
  conditioned space,                      !- Name
  1,                                      !- Multiplier
  ,                                       !- Ceiling Height {m}
  692.06373070848,                        !- Volume {m3}
  ,                                       !- Floor Area {m2}
  ,                                       !- Zone Inside Convection Algorithm
  ,                                       !- Zone Outside Convection Algorithm
  ,                                       !- Zone Conditioning Equipment List Name
  {f7be061e-30d6-4046-b9ef-3cbd4e8f9124}, !- Zone Air Inlet Port List
  {33f84905-7ecb-4dd0-9911-172f412db328}, !- Zone Air Exhaust Port List
  {d112646b-969e-4afd-91e5-b792eec02e02}, !- Zone Air Node Name
  {734c0c9e-12d6-4eac-946d-de2c21743094}, !- Zone Return Air Port List
  ,                                       !- Primary Daylighting Control Name
  ,                                       !- Fraction of Zone Controlled by Primary Daylighting Control
  ,                                       !- Secondary Daylighting Control Name
  ,                                       !- Fraction of Zone Controlled by Secondary Daylighting Control
  ,                                       !- Illuminance Map Name
  ,                                       !- Group Rendering Name
  {00bf104b-d0c4-4b86-9b44-9fa52f532385}, !- Thermostat Name
  No;                                     !- Use Ideal Air Loads

OS:Node,
  {f38e8772-5131-4984-b433-9c6e7c935f7d}, !- Handle
  Node 1,                                 !- Name
  {d112646b-969e-4afd-91e5-b792eec02e02}, !- Inlet Port
  ;                                       !- Outlet Port

OS:Connection,
  {d112646b-969e-4afd-91e5-b792eec02e02}, !- Handle
  {d844aa36-ed58-4afe-8aac-735e376531a4}, !- Source Object
  11,                                     !- Outlet Port
  {f38e8772-5131-4984-b433-9c6e7c935f7d}, !- Target Object
  2;                                      !- Inlet Port

OS:PortList,
  {f7be061e-30d6-4046-b9ef-3cbd4e8f9124}, !- Handle
  {d844aa36-ed58-4afe-8aac-735e376531a4}, !- HVAC Component
  {f465f21b-bfbd-44ba-adb9-a186e8e81fde}, !- Port 1
  {4789a02e-27af-4f92-92b1-012e4c42c692}; !- Port 2

OS:PortList,
  {33f84905-7ecb-4dd0-9911-172f412db328}, !- Handle
  {d844aa36-ed58-4afe-8aac-735e376531a4}; !- HVAC Component

OS:PortList,
  {734c0c9e-12d6-4eac-946d-de2c21743094}, !- Handle
  {d844aa36-ed58-4afe-8aac-735e376531a4}, !- HVAC Component
  {7f742c94-09e8-41d9-81eb-688cba373bfd}, !- Port 1
  {2bd2d113-7309-4253-8919-acf9bcecd3be}; !- Port 2

OS:Sizing:Zone,
  {c3869b9b-0b35-4894-bbe7-efb8c1988d87}, !- Handle
  {d844aa36-ed58-4afe-8aac-735e376531a4}, !- Zone or ZoneList Name
  SupplyAirTemperature,                   !- Zone Cooling Design Supply Air Temperature Input Method
  14,                                     !- Zone Cooling Design Supply Air Temperature {C}
  11.11,                                  !- Zone Cooling Design Supply Air Temperature Difference {deltaC}
  SupplyAirTemperature,                   !- Zone Heating Design Supply Air Temperature Input Method
  40,                                     !- Zone Heating Design Supply Air Temperature {C}
  11.11,                                  !- Zone Heating Design Supply Air Temperature Difference {deltaC}
  0.0085,                                 !- Zone Cooling Design Supply Air Humidity Ratio {kg-H2O/kg-air}
  0.008,                                  !- Zone Heating Design Supply Air Humidity Ratio {kg-H2O/kg-air}
  ,                                       !- Zone Heating Sizing Factor
  ,                                       !- Zone Cooling Sizing Factor
  DesignDay,                              !- Cooling Design Air Flow Method
  ,                                       !- Cooling Design Air Flow Rate {m3/s}
  ,                                       !- Cooling Minimum Air Flow per Zone Floor Area {m3/s-m2}
  ,                                       !- Cooling Minimum Air Flow {m3/s}
  ,                                       !- Cooling Minimum Air Flow Fraction
  DesignDay,                              !- Heating Design Air Flow Method
  ,                                       !- Heating Design Air Flow Rate {m3/s}
  ,                                       !- Heating Maximum Air Flow per Zone Floor Area {m3/s-m2}
  ,                                       !- Heating Maximum Air Flow {m3/s}
  ,                                       !- Heating Maximum Air Flow Fraction
  No,                                     !- Account for Dedicated Outdoor Air System
  NeutralSupplyAir,                       !- Dedicated Outdoor Air System Control Strategy
  autosize,                               !- Dedicated Outdoor Air Low Setpoint Temperature for Design {C}
  autosize,                               !- Dedicated Outdoor Air High Setpoint Temperature for Design {C}
  Sensible Load Only No Latent Load,      !- Zone Load Sizing Method
  HumidityRatioDifference,                !- Zone Latent Cooling Design Supply Air Humidity Ratio Input Method
  ,                                       !- Zone Dehumidification Design Supply Air Humidity Ratio {kgWater/kgDryAir}
  0.005,                                  !- Zone Cooling Design Supply Air Humidity Ratio Difference {kgWater/kgDryAir}
  HumidityRatioDifference,                !- Zone Latent Heating Design Supply Air Humidity Ratio Input Method
  ,                                       !- Zone Humidification Design Supply Air Humidity Ratio {kgWater/kgDryAir}
  0.005,                                  !- Zone Humidification Design Supply Air Humidity Ratio Difference {kgWater/kgDryAir}
  ,                                       !- Zone Humidistat Dehumidification Set Point Schedule Name
  ,                                       !- Zone Humidistat Humidification Set Point Schedule Name
  ,                                       !- Design Zone Air Distribution Effectiveness in Cooling Mode
  ,                                       !- Design Zone Air Distribution Effectiveness in Heating Mode
  ,                                       !- Design Zone Secondary Recirculation Fraction {dimensionless}
  ,                                       !- Design Minimum Zone Ventilation Efficiency {dimensionless}
  Coincident;                             !- Sizing Option

OS:ZoneHVAC:EquipmentList,
  {9eec38d2-8b13-4ef7-b66b-fa75422c64db}, !- Handle
  Zone HVAC Equipment List 1,             !- Name
  {d844aa36-ed58-4afe-8aac-735e376531a4}, !- Thermal Zone
  ,                                       !- Load Distribution Scheme
  {4101f7c1-95b1-4ed2-9d6e-6b2b574dd510}, !- Zone Equipment 1
  1,                                      !- Zone Equipment Cooling Sequence 1
  1,                                      !- Zone Equipment Heating or No-Load Sequence 1
  {826ea7ee-14d0-415f-8d68-d108f7775d81}, !- Zone Equipment Sequential Cooling Fraction Schedule Name 1
  {b97cdd3a-f769-4054-b553-f6a5db2cd263}, !- Zone Equipment Sequential Heating Fraction Schedule Name 1
  {f536a79f-ff38-400e-9702-b9de31aba193}, !- Zone Equipment 2
  2,                                      !- Zone Equipment Cooling Sequence 2
  2,                                      !- Zone Equipment Heating or No-Load Sequence 2
  {ebfd2204-0c52-4664-9f57-582049532a6c}, !- Zone Equipment Sequential Cooling Fraction Schedule Name 2
  {ed629e22-5cd1-4fe3-8045-65b1b99517f1}; !- Zone Equipment Sequential Heating Fraction Schedule Name 2

OS:AdditionalProperties,
  {bacd0943-bee6-4d1f-8f2a-4b12b71f6967}, !- Handle
  {d844aa36-ed58-4afe-8aac-735e376531a4}, !- Object Name
  ObjectType,                             !- Feature Name 1
  String,                                 !- Feature Data Type 1
  conditioned space;                      !- Feature Value 1

OS:Space,
  {bb4782a1-8f07-4ab9-a412-99e0f9dace9f}, !- Handle
  conditioned space 1,                    !- Name
  ,                                       !- Space Type Name
  ,                                       !- Default Construction Set Name
  ,                                       !- Default Schedule Set Name
  ,                                       !- Direction of Relative North {deg}
  ,                                       !- X Origin {m}
  ,                                       !- Y Origin {m}
  ,                                       !- Z Origin {m}
  ,                                       !- Building Story Name
  {d844aa36-ed58-4afe-8aac-735e376531a4}, !- Thermal Zone Name
  ,                                       !- Part of Total Floor Area
  ,                                       !- Design Specification Outdoor Air Object Name
  ,                                       !- Building Unit Name
  692.06373070848;                        !- Volume {m3}

OS:Schedule:Ruleset,
  {15196764-9fc7-4645-9b8c-d27da09be9c7}, !- Handle
  heating setpoint,                       !- Name
  {940388bd-05a0-443d-a1d4-5515f4588cb3}, !- Schedule Type Limits Name
  {b02cd037-b595-444d-9c98-14da48ef908b}; !- Default Day Schedule Name

OS:Schedule:Day,
  {b02cd037-b595-444d-9c98-14da48ef908b}, !- Handle
  heating setpoint default day,           !- Name
  {940388bd-05a0-443d-a1d4-5515f4588cb3}, !- Schedule Type Limits Name
  ,                                       !- Interpolate to Timestep
  24,                                     !- Hour 1
  0,                                      !- Minute 1
  0;                                      !- Value Until Time 1

OS:Schedule:Rule,
  {52162476-8cce-4021-a42c-4d850edf6392}, !- Handle
  heating setpoint allday rule,           !- Name
  {15196764-9fc7-4645-9b8c-d27da09be9c7}, !- Schedule Ruleset Name
  0,                                      !- Rule Order
  {4c4e54be-959e-4d48-8912-5fb1e60ca445}, !- Day Schedule Name
  Yes,                                    !- Apply Sunday
  Yes,                                    !- Apply Monday
  Yes,                                    !- Apply Tuesday
  Yes,                                    !- Apply Wednesday
  Yes,                                    !- Apply Thursday
  Yes,                                    !- Apply Friday
  Yes,                                    !- Apply Saturday
  DateRange,                              !- Date Specification Type
  1,                                      !- Start Month
  1,                                      !- Start Day
  12,                                     !- End Month
  31;                                     !- End Day

OS:Schedule:Day,
  {4c4e54be-959e-4d48-8912-5fb1e60ca445}, !- Handle
  heating setpoint day,                   !- Name
  {940388bd-05a0-443d-a1d4-5515f4588cb3}, !- Schedule Type Limits Name
  ,                                       !- Interpolate to Timestep
  24,                                     !- Hour 1
  0,                                      !- Minute 1
  20;                                     !- Value Until Time 1

OS:Schedule:Ruleset,
  {aaecb235-81e1-4a34-abe2-3dc9bd40b16a}, !- Handle
  cooling setpoint,                       !- Name
  {940388bd-05a0-443d-a1d4-5515f4588cb3}, !- Schedule Type Limits Name
  {98dd93ae-df4c-4bb5-bf9b-42ce34265ec7}; !- Default Day Schedule Name

OS:Schedule:Day,
  {98dd93ae-df4c-4bb5-bf9b-42ce34265ec7}, !- Handle
  cooling setpoint default day,           !- Name
  {940388bd-05a0-443d-a1d4-5515f4588cb3}, !- Schedule Type Limits Name
  ,                                       !- Interpolate to Timestep
  24,                                     !- Hour 1
  0,                                      !- Minute 1
  0;                                      !- Value Until Time 1

OS:Schedule:Rule,
  {53f4a18b-1e48-405c-93a1-3603a3521026}, !- Handle
  cooling setpoint allday rule,           !- Name
  {aaecb235-81e1-4a34-abe2-3dc9bd40b16a}, !- Schedule Ruleset Name
  0,                                      !- Rule Order
  {03c8cbba-bf1c-41ab-868c-6ba85643c051}, !- Day Schedule Name
  Yes,                                    !- Apply Sunday
  Yes,                                    !- Apply Monday
  Yes,                                    !- Apply Tuesday
  Yes,                                    !- Apply Wednesday
  Yes,                                    !- Apply Thursday
  Yes,                                    !- Apply Friday
  Yes,                                    !- Apply Saturday
  DateRange,                              !- Date Specification Type
  1,                                      !- Start Month
  1,                                      !- Start Day
  12,                                     !- End Month
  31;                                     !- End Day

OS:Schedule:Day,
  {03c8cbba-bf1c-41ab-868c-6ba85643c051}, !- Handle
  cooling setpoint day,                   !- Name
  {940388bd-05a0-443d-a1d4-5515f4588cb3}, !- Schedule Type Limits Name
  ,                                       !- Interpolate to Timestep
  24,                                     !- Hour 1
  0,                                      !- Minute 1
  25.5555555555556;                       !- Value Until Time 1

OS:ThermostatSetpoint:DualSetpoint,
  {00bf104b-d0c4-4b86-9b44-9fa52f532385}, !- Handle
  conditioned space temperature setpoint, !- Name
  {15196764-9fc7-4645-9b8c-d27da09be9c7}, !- Heating Setpoint Temperature Schedule Name
  {aaecb235-81e1-4a34-abe2-3dc9bd40b16a}, !- Cooling Setpoint Temperature Schedule Name
  0;                                      !- Temperature Difference Between Cutout And Setpoint {deltaC}

OS:ScheduleTypeLimits,
  {940388bd-05a0-443d-a1d4-5515f4588cb3}, !- Handle
  Temperature,                            !- Name
  ,                                       !- Lower Limit Value
  ,                                       !- Upper Limit Value
  Continuous,                             !- Numeric Type
  Temperature;                            !- Unit Type

OS:Surface,
  {81bb0d65-e82d-4fae-9303-3c0a75d45880}, !- Handle
  Roof1,                                  !- Name
  RoofCeiling,                            !- Surface Type
  {af64fada-6112-4519-9b96-480442daa458}, !- Construction Name
  {87b33a5d-8c2e-465a-8fd8-16f86642bd14}, !- Space Name
  Outdoors,                               !- Outside Boundary Condition
  ,                                       !- Outside Boundary Condition Object
  SunExposed,                             !- Sun Exposure
  WindExposed,                            !- Wind Exposure
  ,                                       !- View Factor to Ground
  ,                                       !- Number of Vertices
  -26.9347048849634, 58.0557891618865, 2.4384, !- X,Y,Z Vertex 1 {m}
  -26.9347048849634, 46.7895631136661, 8.0715130241102, !- X,Y,Z Vertex 2 {m}
  -14.3386812381136, 46.7895631136661, 8.0715130241102, !- X,Y,Z Vertex 3 {m}
  -14.3386812381136, 58.0557891618865, 2.4384; !- X,Y,Z Vertex 4 {m}

OS:AdditionalProperties,
  {57c0eab0-e6eb-4d69-94c0-78d83605f7b4}, !- Handle
  {81bb0d65-e82d-4fae-9303-3c0a75d45880}, !- Object Name
  Length,                                 !- Feature Name 1
  Double,                                 !- Feature Data Type 1
  41.325536899113608,                     !- Feature Value 1
  Width,                                  !- Feature Name 2
  Double,                                 !- Feature Data Type 2
  41.325536899113601,                     !- Feature Value 2
  Azimuth,                                !- Feature Name 3
  Integer,                                !- Feature Data Type 3
  0,                                      !- Feature Value 3
  Tilt,                                   !- Feature Name 4
  Double,                                 !- Feature Data Type 4
  0.5,                                    !- Feature Value 4
  SurfaceType,                            !- Feature Name 5
  String,                                 !- Feature Data Type 5
  Roof;                                   !- Feature Value 5

OS:ThermalZone,
  {6114f375-bb5c-4e0c-bae2-c898bc0b1c03}, !- Handle
  attic - vented,                         !- Name
  1,                                      !- Multiplier
  ,                                       !- Ceiling Height {m}
  356.389957095237,                       !- Volume {m3}
  ,                                       !- Floor Area {m2}
  ,                                       !- Zone Inside Convection Algorithm
  ,                                       !- Zone Outside Convection Algorithm
  ,                                       !- Zone Conditioning Equipment List Name
  {576f4225-3743-4e0b-9b14-a782786d5aee}, !- Zone Air Inlet Port List
  {be5d7129-8a53-48a9-8e48-7ca6b55af0fd}, !- Zone Air Exhaust Port List
  {0c81bd84-40e7-4fab-8515-be051d25c2ab}, !- Zone Air Node Name
  {8835d053-cd02-4b64-9bc0-32aef9b5f0b6}, !- Zone Return Air Port List
  ,                                       !- Primary Daylighting Control Name
  ,                                       !- Fraction of Zone Controlled by Primary Daylighting Control
  ,                                       !- Secondary Daylighting Control Name
  ,                                       !- Fraction of Zone Controlled by Secondary Daylighting Control
  ,                                       !- Illuminance Map Name
  ,                                       !- Group Rendering Name
  ,                                       !- Thermostat Name
  No;                                     !- Use Ideal Air Loads

OS:Node,
  {50ecf830-76c5-4e5a-b372-fcbc79003177}, !- Handle
  Node 2,                                 !- Name
  {0c81bd84-40e7-4fab-8515-be051d25c2ab}, !- Inlet Port
  ;                                       !- Outlet Port

OS:Connection,
  {0c81bd84-40e7-4fab-8515-be051d25c2ab}, !- Handle
  {6114f375-bb5c-4e0c-bae2-c898bc0b1c03}, !- Source Object
  11,                                     !- Outlet Port
  {50ecf830-76c5-4e5a-b372-fcbc79003177}, !- Target Object
  2;                                      !- Inlet Port

OS:PortList,
  {576f4225-3743-4e0b-9b14-a782786d5aee}, !- Handle
  {6114f375-bb5c-4e0c-bae2-c898bc0b1c03}; !- HVAC Component

OS:PortList,
  {be5d7129-8a53-48a9-8e48-7ca6b55af0fd}, !- Handle
  {6114f375-bb5c-4e0c-bae2-c898bc0b1c03}; !- HVAC Component

OS:PortList,
  {8835d053-cd02-4b64-9bc0-32aef9b5f0b6}, !- Handle
  {6114f375-bb5c-4e0c-bae2-c898bc0b1c03}; !- HVAC Component

OS:Sizing:Zone,
  {29526440-f899-4ff7-8231-ca32f63a13b2}, !- Handle
  {6114f375-bb5c-4e0c-bae2-c898bc0b1c03}, !- Zone or ZoneList Name
  SupplyAirTemperature,                   !- Zone Cooling Design Supply Air Temperature Input Method
  14,                                     !- Zone Cooling Design Supply Air Temperature {C}
  11.11,                                  !- Zone Cooling Design Supply Air Temperature Difference {deltaC}
  SupplyAirTemperature,                   !- Zone Heating Design Supply Air Temperature Input Method
  40,                                     !- Zone Heating Design Supply Air Temperature {C}
  11.11,                                  !- Zone Heating Design Supply Air Temperature Difference {deltaC}
  0.0085,                                 !- Zone Cooling Design Supply Air Humidity Ratio {kg-H2O/kg-air}
  0.008,                                  !- Zone Heating Design Supply Air Humidity Ratio {kg-H2O/kg-air}
  ,                                       !- Zone Heating Sizing Factor
  ,                                       !- Zone Cooling Sizing Factor
  DesignDay,                              !- Cooling Design Air Flow Method
  ,                                       !- Cooling Design Air Flow Rate {m3/s}
  ,                                       !- Cooling Minimum Air Flow per Zone Floor Area {m3/s-m2}
  ,                                       !- Cooling Minimum Air Flow {m3/s}
  ,                                       !- Cooling Minimum Air Flow Fraction
  DesignDay,                              !- Heating Design Air Flow Method
  ,                                       !- Heating Design Air Flow Rate {m3/s}
  ,                                       !- Heating Maximum Air Flow per Zone Floor Area {m3/s-m2}
  ,                                       !- Heating Maximum Air Flow {m3/s}
  ,                                       !- Heating Maximum Air Flow Fraction
  No,                                     !- Account for Dedicated Outdoor Air System
  NeutralSupplyAir,                       !- Dedicated Outdoor Air System Control Strategy
  autosize,                               !- Dedicated Outdoor Air Low Setpoint Temperature for Design {C}
  autosize,                               !- Dedicated Outdoor Air High Setpoint Temperature for Design {C}
  Sensible Load Only No Latent Load,      !- Zone Load Sizing Method
  HumidityRatioDifference,                !- Zone Latent Cooling Design Supply Air Humidity Ratio Input Method
  ,                                       !- Zone Dehumidification Design Supply Air Humidity Ratio {kgWater/kgDryAir}
  0.005,                                  !- Zone Cooling Design Supply Air Humidity Ratio Difference {kgWater/kgDryAir}
  HumidityRatioDifference,                !- Zone Latent Heating Design Supply Air Humidity Ratio Input Method
  ,                                       !- Zone Humidification Design Supply Air Humidity Ratio {kgWater/kgDryAir}
  0.005,                                  !- Zone Humidification Design Supply Air Humidity Ratio Difference {kgWater/kgDryAir}
  ,                                       !- Zone Humidistat Dehumidification Set Point Schedule Name
  ,                                       !- Zone Humidistat Humidification Set Point Schedule Name
  ,                                       !- Design Zone Air Distribution Effectiveness in Cooling Mode
  ,                                       !- Design Zone Air Distribution Effectiveness in Heating Mode
  ,                                       !- Design Zone Secondary Recirculation Fraction {dimensionless}
  ,                                       !- Design Minimum Zone Ventilation Efficiency {dimensionless}
  Coincident;                             !- Sizing Option

OS:ZoneHVAC:EquipmentList,
  {013cb6ad-0ff4-485e-ada6-764572745919}, !- Handle
  Zone HVAC Equipment List 2,             !- Name
  {6114f375-bb5c-4e0c-bae2-c898bc0b1c03}; !- Thermal Zone

OS:AdditionalProperties,
  {2e55c9ce-097b-4bec-9ab0-93668ac2b025}, !- Handle
  {6114f375-bb5c-4e0c-bae2-c898bc0b1c03}, !- Object Name
  ObjectType,                             !- Feature Name 1
  String,                                 !- Feature Data Type 1
  attic - vented;                         !- Feature Value 1

OS:Space,
  {87b33a5d-8c2e-465a-8fd8-16f86642bd14}, !- Handle
  attic - vented 1,                       !- Name
  ,                                       !- Space Type Name
  ,                                       !- Default Construction Set Name
  ,                                       !- Default Schedule Set Name
  ,                                       !- Direction of Relative North {deg}
  ,                                       !- X Origin {m}
  ,                                       !- Y Origin {m}
  ,                                       !- Z Origin {m}
  ,                                       !- Building Story Name
  {6114f375-bb5c-4e0c-bae2-c898bc0b1c03}, !- Thermal Zone Name
  ,                                       !- Part of Total Floor Area
  ,                                       !- Design Specification Outdoor Air Object Name
  ,                                       !- Building Unit Name
  356.389957095237;                       !- Volume {m3}

OS:Material,