
OS:Version,
  {40335ce0-cfdc-4bf3-86ca-85eb54328a79}, !- Handle
  3.10.0;                                 !- Version Identifier

OS:SimulationControl,
  {7d156106-c190-4573-b899-42f696ac41c3}, !- Handle
  ,                                       !- Do Zone Sizing Calculation
  ,                                       !- Do System Sizing Calculation
  ,                                       !- Do Plant Sizing Calculation
  No;                                     !- Run Simulation for Sizing Periods

OS:Timestep,
  {bd6853e8-29e3-442e-8f75-0fdeab2a02ac}, !- Handle
  1;                                      !- Number of Timesteps per Hour

OS:ShadowCalculation,
  {86633e7f-8673-41fd-acf9-3c60996224ed}, !- Handle
  PolygonClipping,                        !- Shading Calculation Method
  ,                                       !- Shading Calculation Update Frequency Method
  20,                                     !- Shading Calculation Update Frequency
  200,                                    !- Maximum Figures in Shadow Overlap Calculations
  ,                                       !- Polygon Clipping Algorithm
  512,                                    !- Pixel Counting Resolution
  ,                                       !- Sky Diffuse Modeling Algorithm
  No,                                     !- Output External Shading Calculation Results
  No,                                     !- Disable Self-Shading Within Shading Zone Groups
  No;                                     !- Disable Self-Shading From Shading Zone Groups to Other Zones

OS:SurfaceConvectionAlgorithm:Outside,
  {95f3b90e-604b-40f4-a2f4-558fbe97e284}, !- Handle
  DOE-2;                                  !- Algorithm

OS:SurfaceConvectionAlgorithm:Inside,
  {7ccd1463-7592-40f3-bb9b-57688321abe2}, !- Handle
  TARP;                                   !- Algorithm

OS:ZoneCapacitanceMultiplier:ResearchSpecial,
  {bf8c13fd-8d19-4708-9f30-162e8092ffe9}, !- Handle
  7,                                      !- Temperature Capacity Multiplier
  15,                                     !- Humidity Capacity Multiplier
  ;                                       !- Carbon Dioxide Capacity Multiplier

OS:ConvergenceLimits,
  {e898d58d-a04a-4a9c-b7aa-b7548aee7873}, !- Handle
  0;                                      !- Minimum System Timestep {minutes}

OS:RunPeriod,
  {3a6649b1-c62b-48a5-8061-c1c4595df8eb}, !- Handle
  Run Period 1,                           !- Name
  1,                                      !- Begin Month
  1,                                      !- Begin Day of Month
  12,                                     !- End Month
  31,                                     !- End Day of Month
  ,                                       !- Use Weather File Holidays and Special Days
  ,                                       !- Use Weather File Daylight Saving Period
  ,                                       !- Apply Weekend Holiday Rule
  ,                                       !- Use Weather File Rain Indicators
  ,                                       !- Use Weather File Snow Indicators
  ;                                       !- Number of Times Runperiod to be Repeated

OS:PerformancePrecisionTradeoffs,
  {cb4c9a17-1735-46c5-8bba-c3d99ddb694b}, !- Handle
  ,                                       !- Use Coil Direct Solutions
  CarrollMRT;                             !- Zone Radiant Exchange Algorithm

OS:WeatherFile,
  {466edce9-f47d-40e9-b226-2748a4b8102c}, !- Handle
  Buffalo Niagara Intl Ap,                !- City
  NY,                                     !- State Province Region
  USA,                                    !- Country
  TMY3,                                   !- Data Source
  725280,                                 !- WMO Number
  42.93,                                  !- Latitude {deg}
  -78.73,                                 !- Longitude {deg}
  -5,                                     !- Time Zone {hr}
  215,                                    !- Elevation {m}
  /Users/nmoore/github/urbanopt-example-geojson-project/example_project/weather/USA_NY_Buffalo-Greater.Buffalo.Intl.AP.725280_TMY3.epw, !- Url
  6B50E0FF,                               !- Checksum
  ,                                       !- Start Date Actual Year
  Sunday;                                 !- Start Day of Week

OS:YearDescription,
  {10cd3814-f0f5-4308-9cf6-e2ce82cf28e2}, !- Handle
  2007,                                   !- Calendar Year
  ,                                       !- Day of Week for Start Day
  ;                                       !- Is Leap Year

OS:Site,
  {1ffc1d70-a64c-42ea-9069-7e9fc3b6d2ce}, !- Handle
  Buffalo Niagara Intl Ap_NY,             !- Name
  42.93,                                  !- Latitude {deg}
  -78.73,                                 !- Longitude {deg}
  -5,                                     !- Time Zone {hr}
  215,                                    !- Elevation {m}
  Suburbs,                                !- Terrain
  Yes;                                    !- Keep Site Location Information

OS:RunPeriodControl:DaylightSavingTime,
  {d977482c-878a-483c-aa33-a077ddd4ca70}, !- Handle
  Mar 12,                                 !- Start Date
  Nov 5;                                  !- End Date

OS:Site:GroundTemperature:Shallow,
  {d06b1101-c70b-48a2-a771-9d6e3018d58c}, !- Handle
  4.30207395723828,                       !- January Surface Ground Temperature {C}
  2.29327249652502,                       !- February Surface Ground Temperature {C}
  2.13240047156047,                       !- March Surface Ground Temperature {C}
  3.08567940719286,                       !- April Surface Ground Temperature {C}
  6.91256312497526,                       !- May Surface Ground Temperature {C}
  10.7216195949507,                       !- June Surface Ground Temperature {C}
  14.0238679822574,                       !- July Surface Ground Temperature {C}
  16.1157611184724,                       !- August Surface Ground Temperature {C}
  16.2934789303462,                       !- September Surface Ground Temperature {C}
  14.5920754632847,                       !- October Surface Ground Temperature {C}
  11.374036348653,                        !- November Surface Ground Temperature {C}
  7.68182621661674;                       !- December Surface Ground Temperature {C}

OS:ThermalZone,
  {0a02a485-bd77-429d-8cfd-01381fa36612}, !- Handle
  conditioned space,                      !- Name
  1,                                      !- Multiplier
  ,                                       !- Ceiling Height {m}
  346.03186535424,                        !- Volume {m3}
  ,                                       !- Floor Area {m2}
  ,                                       !- Zone Inside Convection Algorithm
  ,                                       !- Zone Outside Convection Algorithm
  ,                                       !- Zone Conditioning Equipment List Name
  {8e79c217-c686-4292-b328-bdb493799cf0}, !- Zone Air Inlet Port List
  {cfee41e6-3a51-4ed0-8e3f-dd757fc3704c}, !- Zone Air Exhaust Port List
  {51453dc4-9405-4c3f-a7b2-d9f507de556e}, !- Zone Air Node Name
  {21f89f42-2600-42be-8796-eec1ee0e165d}, !- Zone Return Air Port List
  ,                                       !- Primary Daylighting Control Name
  ,                                       !- Fraction of Zone Controlled by Primary Daylighting Control
  ,                                       !- Secondary Daylighting Control Name
  ,                                       !- Fraction of Zone Controlled by Secondary Daylighting Control
  ,                                       !- Illuminance Map Name
  ,                                       !- Group Rendering Name
  {78c369a3-6b9b-4995-9085-c9fc5778f1b4}, !- Thermostat Name
  No;                                     !- Use Ideal Air Loads

OS:Node,
  {b2172c21-8029-48ad-afb7-cee12478d560}, !- Handle
  Node 1,                                 !- Name
  {51453dc4-9405-4c3f-a7b2-d9f507de556e}, !- Inlet Port
  ;                                       !- Outlet Port

OS:Connection,
  {51453dc4-9405-4c3f-a7b2-d9f507de556e}, !- Handle
  {0a02a485-bd77-429d-8cfd-01381fa36612}, !- Source Object
  11,                                     !- Outlet Port
  {b2172c21-8029-48ad-afb7-cee12478d560}, !- Target Object
  2;                                      !- Inlet Port

OS:PortList,
  {8e79c217-c686-4292-b328-bdb493799cf0}, !- Handle
  {0a02a485-bd77-429d-8cfd-01381fa36612}, !- HVAC Component
  {cf25d7af-61f8-4bbf-b42e-7ee375846fe5}; !- Port 1

OS:PortList,
  {cfee41e6-3a51-4ed0-8e3f-dd757fc3704c}, !- Handle
  {0a02a485-bd77-429d-8cfd-01381fa36612}; !- HVAC Component

OS:PortList,
  {21f89f42-2600-42be-8796-eec1ee0e165d}, !- Handle
  {0a02a485-bd77-429d-8cfd-01381fa36612}, !- HVAC Component
  {0271bb92-6e30-4c3a-a643-1641afdc013f}; !- Port 1

OS:Sizing:Zone,
  {0bbfd221-7744-480a-96e5-7d034110543d}, !- Handle
  {0a02a485-bd77-429d-8cfd-01381fa36612}, !- Zone or ZoneList Name
  SupplyAirTemperature,                   !- Zone Cooling Design Supply Air Temperature Input Method
  14,                                     !- Zone Cooling Design Supply Air Temperature {C}
  11.11,                                  !- Zone Cooling Design Supply Air Temperature Difference {deltaC}
  SupplyAirTemperature,                   !- Zone Heating Design Supply Air Temperature Input Method
  40,                                     !- Zone Heating Design Supply Air Temperature {C}
  11.11,                                  !- Zone Heating Design Supply Air Temperature Difference {deltaC}
  0.0085,                                 !- Zone Cooling Design Supply Air Humidity Ratio {kg-H2O/kg-air}
  0.008,                                  !- Zone Heating Design Supply Air Humidity Ratio {kg-H2O/kg-air}
  ,                                       !- Zone Heating Sizing Factor
  ,                                       !- Zone Cooling Sizing Factor
  DesignDay,                              !- Cooling Design Air Flow Method
  ,                                       !- Cooling Design Air Flow Rate {m3/s}
  ,                                       !- Cooling Minimum Air Flow per Zone Floor Area {m3/s-m2}
  ,                                       !- Cooling Minimum Air Flow {m3/s}
  ,                                       !- Cooling Minimum Air Flow Fraction
  DesignDay,                              !- Heating Design Air Flow Method
  ,                                       !- Heating Design Air Flow Rate {m3/s}
  ,                                       !- Heating Maximum Air Flow per Zone Floor Area {m3/s-m2}
  ,                                       !- Heating Maximum Air Flow {m3/s}
  ,                                       !- Heating Maximum Air Flow Fraction
  No,                                     !- Account for Dedicated Outdoor Air System
  NeutralSupplyAir,                       !- Dedicated Outdoor Air System Control Strategy
  autosize,                               !- Dedicated Outdoor Air Low Setpoint Temperature for Design {C}
  autosize,                               !- Dedicated Outdoor Air High Setpoint Temperature for Design {C}
  Sensible Load Only No Latent Load,      !- Zone Load Sizing Method
  HumidityRatioDifference,                !- Zone Latent Cooling Design Supply Air Humidity Ratio Input Method
  ,                                       !- Zone Dehumidification Design Supply Air Humidity Ratio {kgWater/kgDryAir}
  0.005,                                  !- Zone Cooling Design Supply Air Humidity Ratio Difference {kgWater/kgDryAir}
  HumidityRatioDifference,                !- Zone Latent Heating Design Supply Air Humidity Ratio Input Method
  ,                                       !- Zone Humidification Design Supply Air Humidity Ratio {kgWater/kgDryAir}
  0.005,                                  !- Zone Humidification Design Supply Air Humidity Ratio Difference {kgWater/kgDryAir}
  ,                                       !- Zone Humidistat Dehumidification Set Point Schedule Name
  ,                                       !- Zone Humidistat Humidification Set Point Schedule Name
  ,                                       !- Design Zone Air Distribution Effectiveness in Cooling Mode
  ,                                       !- Design Zone Air Distribution Effectiveness in Heating Mode
  ,                                       !- Design Zone Secondary Recirculation Fraction {dimensionless}
  ,                                       !- Design Minimum Zone Ventilation Efficiency {dimensionless}
  Coincident;                             !- Sizing Option

OS:ZoneHVAC:EquipmentList,
  {bf0dbc81-59bc-475b-bcff-e254de1aebf8}, !- Handle
  Zone HVAC Equipment List 1,             !- Name
  {0a02a485-bd77-429d-8cfd-01381fa36612}, !- Thermal Zone
  ,                                       !- Load Distribution Scheme
  {9684c6e5-50ea-43da-aac8-1d84a9e87fe1}, !- Zone Equipment 1
  1,                                      !- Zone Equipment Cooling Sequence 1
  1,                                      !- Zone Equipment Heating or No-Load Sequence 1
  {11fe8dd1-84a4-4c8e-946d-2b30a190ddb1}, !- Zone Equipment Sequential Cooling Fraction Schedule Name 1
  {61e42493-6d9f-4420-99b9-1175351505d4}; !- Zone Equipment Sequential Heating Fraction Schedule Name 1

OS:AdditionalProperties,
  {ea5cdf90-a70e-4ba5-9d8f-4c0c86b37955}, !- Handle
  {0a02a485-bd77-429d-8cfd-01381fa36612}, !- Object Name
  ObjectType,                             !- Feature Name 1
  String,                                 !- Feature Data Type 1
  conditioned space;                      !- Feature Value 1

OS:Space,
  {ea59678b-253e-4d53-bc24-8536b0ecfa06}, !- Handle
  conditioned space 1,                    !- Name
  ,                                       !- Space Type Name
  ,                                       !- Default Construction Set Name
  ,                                       !- Default Schedule Set Name
  ,                                       !- Direction of Relative North {deg}
  ,                                       !- X Origin {m}
  ,                                       !- Y Origin {m}
  ,                                       !- Z Origin {m}
  ,                                       !- Building Story Name
  {0a02a485-bd77-429d-8cfd-01381fa36612}, !- Thermal Zone Name
  ,                                       !- Part of Total Floor Area
  ,                                       !- Design Specification Outdoor Air Object Name
  ,                                       !- Building Unit Name
  346.03186535424;                        !- Volume {m3}

OS:Schedule:Ruleset,
  {0bb82be8-6114-49cd-82cc-372ca2b01d5c}, !- Handle
  heating setpoint,                       !- Name
  {bc43f44b-2054-480f-87bc-24b922557e99}, !- Schedule Type Limits Name
  {a0a6f058-d0bd-4ac7-aeeb-61f6ac4a3815}; !- Default Day Schedule Name

OS:Schedule:Day,
  {a0a6f058-d0bd-4ac7-aeeb-61f6ac4a3815}, !- Handle
  heating setpoint default day,           !- Name
  {bc43f44b-2054-480f-87bc-24b922557e99}, !- Schedule Type Limits Name
  ,                                       !- Interpolate to Timestep
  24,                                     !- Hour 1
  0,                                      !- Minute 1
  0;                                      !- Value Until Time 1

OS:Schedule:Rule,
  {9a62b895-332c-451d-80df-7cca383c6447}, !- Handle
  heating setpoint allday rule,           !- Name
  {0bb82be8-6114-49cd-82cc-372ca2b01d5c}, !- Schedule Ruleset Name
  0,                                      !- Rule Order
  {2e560c69-26ca-452c-83d9-36ef27c4e83b}, !- Day Schedule Name
  Yes,                                    !- Apply Sunday
  Yes,                                    !- Apply Monday
  Yes,                                    !- Apply Tuesday
  Yes,                                    !- Apply Wednesday
  Yes,                                    !- Apply Thursday
  Yes,                                    !- Apply Friday
  Yes,                                    !- Apply Saturday
  DateRange,                              !- Date Specification Type
  1,                                      !- Start Month
  1,                                      !- Start Day
  12,                                     !- End Month
  31;                                     !- End Day

OS:Schedule:Day,
  {2e560c69-26ca-452c-83d9-36ef27c4e83b}, !- Handle
  heating setpoint day,                   !- Name
  {bc43f44b-2054-480f-87bc-24b922557e99}, !- Schedule Type Limits Name
  ,                                       !- Interpolate to Timestep
  24,                                     !- Hour 1
  0,                                      !- Minute 1
  20;                                     !- Value Until Time 1

OS:Schedule:Ruleset,
  {cf47b0fb-320d-439a-9a47-c4f97ed13342}, !- Handle
  cooling setpoint,                       !- Name
  {bc43f44b-2054-480f-87bc-24b922557e99}, !- Schedule Type Limits Name
  {812c5a78-4f7f-448d-b67d-5ca69663d98e}; !- Default Day Schedule Name

OS:Schedule:Day,
  {812c5a78-4f7f-448d-b67d-5ca69663d98e}, !- Handle
  cooling setpoint default day,           !- Name
  {bc43f44b-2054-480f-87bc-24b922557e99}, !- Schedule Type Limits Name
  ,                                       !- Interpolate to Timestep
  24,                                     !- Hour 1
  0,                                      !- Minute 1
  0;                                      !- Value Until Time 1

OS:Schedule:Rule,
  {6ea0cbf5-70c4-4d79-a216-c4a3bfd54a17}, !- Handle
  cooling setpoint allday rule,           !- Name
  {cf47b0fb-320d-439a-9a47-c4f97ed13342}, !- Schedule Ruleset Name
  0,                                      !- Rule Order
  {f177ce73-1200-4ece-8892-80d84e585c9c}, !- Day Schedule Name
  Yes,                                    !- Apply Sunday
  Yes,                                    !- Apply Monday
  Yes,                                    !- Apply Tuesday
  Yes,                                    !- Apply Wednesday
  Yes,                                    !- Apply Thursday
  Yes,                                    !- Apply Friday
  Yes,                                    !- Apply Saturday
  DateRange,                              !- Date Specification Type
  1,                                      !- Start Month
  1,                                      !- Start Day
  12,                                     !- End Month
  31;                                     !- End Day

OS:Schedule:Day,
  {f177ce73-1200-4ece-8892-80d84e585c9c}, !- Handle
  cooling setpoint day,                   !- Name
  {bc43f44b-2054-480f-87bc-24b922557e99}, !- Schedule Type Limits Name
  ,                                       !- Interpolate to Timestep
  24,                                     !- Hour 1
  0,                                      !- Minute 1
  25.5555555555556;                       !- Value Until Time 1

OS:ThermostatSetpoint:DualSetpoint,
  {78c369a3-6b9b-4995-9085-c9fc5778f1b4}, !- Handle
  conditioned space temperature setpoint, !- Name
  {0bb82be8-6114-49cd-82cc-372ca2b01d5c}, !- Heating Setpoint Temperature Schedule Name
  {cf47b0fb-320d-439a-9a47-c4f97ed13342}, !- Cooling Setpoint Temperature Schedule Name
  0;                                      !- Temperature Difference Between Cutout And Setpoint {deltaC}

OS:ScheduleTypeLimits,
  {bc43f44b-2054-480f-87bc-24b922557e99}, !- Handle
  Temperature,                            !- Name
  ,                                       !- Lower Limit Value
  ,                                       !- Upper Limit Value
  Continuous,                             !- Numeric Type
  Temperature;                            !- Unit Type

OS:Surface,
  {ba34ddaf-2375-40e0-b878-0c979f913d8e}, !- Handle
  Roof1,                                  !- Name
  RoofCeiling,                            !- Surface Type
  {e9114845-7b9e-407f-b728-603b2bbc4c7e}, !- Construction Name
  {ea59678b-253e-4d53-bc24-8536b0ecfa06}, !- Space Name
  Outdoors,                               !- Outside Boundary Condition
  ,                                       !- Outside Boundary Condition Object
  SunExposed,                             !- Sun Exposure
  WindExposed,                            !- Wind Exposure
  ,                                       !- View Factor to Ground
  ,                                       !- Number of Vertices
  -4.86320793386423, 4.86320793386423, 2.4384, !- X,Y,Z Vertex 1 {m}
  -4.86320793386423, -4.86320793386423, 2.4384, !- X,Y,Z Vertex 2 {m}
  4.86320793386423, -4.86320793386423, 2.4384, !- X,Y,Z Vertex 3 {m}
  4.86320793386423, 4.86320793386423, 2.4384; !- X,Y,Z Vertex 4 {m}

OS:AdditionalProperties,
  {60738079-868d-4504-8ffb-908cd0eb36e3}, !- Handle
  {ba34ddaf-2375-40e0-b878-0c979f913d8e}, !- Object Name
  Length,                                 !- Feature Name 1
  Double,                                 !- Feature Data Type 1
  31.910813214332222,                     !- Feature Value 1
  Width,                                  !- Feature Name 2
  Double,                                 !- Feature Data Type 2
  31.910813214332222,                     !- Feature Value 2
  Azimuth,                                !- Feature Name 3
  Integer,                                !- Feature Data Type 3
  0,                                      !- Feature Value 3
  Tilt,                                   !- Feature Name 4
  Double,                                 !- Feature Data Type 4
  0,                                      !- Feature Value 4
  SurfaceType,                            !- Feature Name 5
  String,                                 !- Feature Data Type 5
  Roof;                                   !- Feature Value 5

OS:Material,
  {a476ef47-73e1-41d5-9ad4-e1eadc2ddff3}, !- Handle
  asphalt or fiberglass shingles,         !- Name
  Rough,                                  !- Roughness
  0.00635,                                !- Thickness {m}
  0.162714,                               !- Conductivity {W/m-K}
  1121.4,                                 !- Density {kg/m3}
  1465.45,                                !- Specific Heat {J/kg-K}
  0.9,                                    !- Thermal Absorptance
  0.85,                                   !- Solar Absorptance
  0.85;                                   !- Visible Absorptance

OS:Material,
  {13050f36-0fc7-49f4-8971-8b80a31e06fe}, !- Handle
  roof stud and cavity,                   !- Name
  Rough,                                  !- Roughness
  0.0889,                                 !- Thickness {m}
  0.491900632004487,                      !- Conductivity {W/m-K}
  50.32683,                               !- Density {kg/m3}
  1063.80987585548,                       !- Specific Heat {J/kg-K}
  0.9,                                    !- Thermal Absorptance
  0.7,                                    !- Solar Absorptance
  0.7;                                    !- Visible Absorptance

OS:Material,
  {338413d8-fb88-413a-aeea-67278b85508a}, !- Handle
  gypsum board,                           !- Name
  Rough,                                  !- Roughness
  0.00254,                                !- Thickness {m}
  0.1602906,                              !- Conductivity {W/m-K}
  801,                                    !- Density {kg/m3}
  837.4,                                  !- Specific Heat {J/kg-K}
  0.9,                                    !- Thermal Absorptance
  0.6,                                    !- Solar Absorptance
  0.6;                                    !- Visible Absorptance

OS:Construction,
  {e9114845-7b9e-407f-b728-603b2bbc4c7e}, !- Handle
  Roof1 construction,                     !- Name
  ,                                       !- Surface Rendering Name
  {a476ef47-73e1-41d5-9ad4-e1eadc2ddff3}, !- Layer 1
  {13050f36-0fc7-49f4-8971-8b80a31e06fe}, !- Layer 2
  {338413d8-fb88-413a-aeea-67278b85508a}; !- Layer 3

OS:Surface,
  {3f05ad76-cbfc-41c5-bb0f-934c9c7249f8}, !- Handle
  Wall1,                                  !- Name
  Wall,                                   !- Surface Type
  {58c6ee91-8072-4209-b7ba-b8216f64e4b2}, !- Construction Name
  {ea59678b-253e-4d53-bc24-8536b0ecfa06}, !- Space Name
  Outdoors,                               !- Outside Boundary Condition
  ,                                       !- Outside Boundary Condition Object
  SunExposed,                             !- Sun Exposure
  WindExposed,                            !- Wind Exposure
  ,                                       !- View Factor to Ground
  ,                                       !- Number of Vertices
  -24.069675, 24.9987054, 0,              !- X,Y,Z Vertex 1 {m}
  -24.069675, 24.9987054, 4.8768,         !- X,Y,Z Vertex 2 {m}
  -17.192625, 24.9987054, 4.8768,         !- X,Y,Z Vertex 3 {m}
  -17.192625, 24.9987054, 0;              !- X,Y,Z Vertex 4 {m}

OS:AdditionalProperties,
  {7858ac43-50aa-4217-ae77-1168de81d6b8}, !- Handle
  {3f05ad76-cbfc-41c5-bb0f-934c9c7249f8}, !- Object Name
  Length,                                 !- Feature Name 1
  Double,                                 !- Feature Data Type 1
  22.5625,                                !- Feature Value 1
  Azimuth,                                !- Feature Name 2
  Integer,                                !- Feature Data Type 2
  0,                                      !- Feature Value 2
  Tilt,                                   !- Feature Name 3
  Double,                                 !- Feature Data Type 3
  90,                                     !- Feature Value 3
  SurfaceType,                            !- Feature Name 4
  String,                                 !- Feature Data Type 4
  Wall;                                   !- Feature Value 4

OS:Material,
  {b5e58f4b-fdd5-417f-97f7-70b95120c006}, !- Handle
  wood siding,                            !- Name
  Rough,                                  !- Roughness
  0.0254,                                 !- Thickness {m}
  0.1024175,                              !- Conductivity {W/m-K}
  544.68,                                 !- Density {kg/m3}
  1172.36,                                !- Specific Heat {J/kg-K}
  0.9,                                    !- Thermal Absorptance
  0.7,                                    !- Solar Absorptance
  0.7;                                    !- Visible Absorptance

OS:Material,
  {abd77a82-8da9-499d-ac79-972e2741a930}, !- Handle
  osb sheathing 0.5 in.,                  !- Name
  Rough,                                  !- Roughness
  0.0127,                                 !- Thickness {m}
  0.1154577,                              !- Conductivity {W/m-K}
  512.64,                                 !- Density {kg/m3}
  1214.23,                                !- Specific Heat {J/kg-K}
  0.9,                                    !- Thermal Absorptance
  0.7,                                    !- Solar Absorptance
  0.7;                                    !- Visible Absorptance

OS:Material,
  {b8cfe1ec-bbdd-4703-afab-a4268973fdc3}, !- Handle
  wall stud and cavity,                   !- Name
  Rough,                                  !- Roughness
  0.1397,                                 !- Thickness {m}
  0.0929021674204099,                     !- Conductivity {W/m-K}
  139.0536,                               !- Density {kg/m3}
  1170.23755760369,                       !- Specific Heat {J/kg-K}
  0.9,                                    !- Thermal Absorptance
  0.7,                                    !- Solar Absorptance
  0.7;                                    !- Visible Absorptance

OS:Material,
  {35b942a6-5bfe-4277-9bbf-c276589004e6}, !- Handle
  gypsum board 1,                         !- Name
  Rough,                                  !- Roughness
  0.0127,                                 !- Thickness {m}
  0.1602906,                              !- Conductivity {W/m-K}
  801,                                    !- Density {kg/m3}
  837.4,                                  !- Specific Heat {J/kg-K}
  0.9,                                    !- Thermal Absorptance
  0.6,                                    !- Solar Absorptance
  0.6;                                    !- Visible Absorptance

OS:Construction,
  {58c6ee91-8072-4209-b7ba-b8216f64e4b2}, !- Handle
  Wall1 construction,                     !- Name
  ,                                       !- Surface Rendering Name
  {b5e58f4b-fdd5-417f-97f7-70b95120c006}, !- Layer 1
  {abd77a82-8da9-499d-ac79-972e2741a930}, !- Layer 2
  {b8cfe1ec-bbdd-4703-afab-a4268973fdc3}, !- Layer 3
  {35b942a6-5bfe-4277-9bbf-c276589004e6}; !- Layer 4

OS:Surface,
  {5d1c41af-d45b-4477-ad01-3f8b73af6efb}, !- Handle
  Wall2,                                  !- Name
  Wall,                                   !- Surface Type
  {6b39fc6f-4f22-4474-b770-8527aff25560}, !- Construction Name
  {ea59678b-253e-4d53-bc24-8536b0ecfa06}, !- Space Name
  Outdoors,                               !- Outside Boundary Condition
  ,                                       !- Outside Boundary Condition Object
  SunExposed,                             !- Sun Exposure
  WindExposed,                            !- Wind Exposure
  ,                                       !- View Factor to Ground
  ,                                       !- Number of Vertices
  24.9987054, -21.5601804, 0,             !- X,Y,Z Vertex 1 {m}
  24.9987054, -21.5601804, 4.8768,        !- X,Y,Z Vertex 2 {m}
  24.9987054, -24.9987054, 4.8768,        !- X,Y,Z Vertex 3 {m}
  24.9987054, -24.9987054, 0;             !- X,Y,Z Vertex 4 {m}

OS:AdditionalProperties,
  {d796b3c5-b09c-434a-865d-ae02fe3b31e1}, !- Handle
  {5d1c41af-d45b-4477-ad01-3f8b73af6efb}, !- Object Name
  Length,                                 !- Feature Name 1
  Double,                                 !- Feature Data Type 1
  11.28125,                               !- Feature Value 1
  Azimuth,                                !- Feature Name 2