
OS:Version,
  {5ff9c2d5-32bb-4145-b5b1-10413359a9c5}, !- Handle
  3.9.0;                                  !- Version Identifier

OS:SimulationControl,
  {6452f234-de95-41d0-9c61-5e2aaa55948e}, !- Handle
  ,                                       !- Do Zone Sizing Calculation
  ,                                       !- Do System Sizing Calculation
  ,                                       !- Do Plant Sizing Calculation
  No;                                     !- Run Simulation for Sizing Periods

OS:Timestep,
  {daef45fd-c5ff-4cee-8f6a-3b9968b99e85}, !- Handle
  1;                                      !- Number of Timesteps per Hour

OS:ShadowCalculation,
  {af035ea8-7df6-4c44-aa48-c6fcc19a8927}, !- Handle
  PolygonClipping,                        !- Shading Calculation Method
  ,                                       !- Shading Calculation Update Frequency Method
  20,                                     !- Shading Calculation Update Frequency
  200,                                    !- Maximum Figures in Shadow Overlap Calculations
  ,                                       !- Polygon Clipping Algorithm
  512,                                    !- Pixel Counting Resolution
  ,                                       !- Sky Diffuse Modeling Algorithm
  No,                                     !- Output External Shading Calculation Results
  No,                                     !- Disable Self-Shading Within Shading Zone Groups
  No;                                     !- Disable Self-Shading From Shading Zone Groups to Other Zones

OS:SurfaceConvectionAlgorithm:Outside,
  {591dea3f-9a11-4313-8b37-5c9af2c908bf}, !- Handle
  DOE-2;                                  !- Algorithm

OS:SurfaceConvectionAlgorithm:Inside,
  {3671f5c1-fa00-4fd5-9603-b552d21d43d3}, !- Handle
  TARP;                                   !- Algorithm

OS:ZoneCapacitanceMultiplier:ResearchSpecial,
  {812c92a6-b81c-4fc7-90e2-59f331da2156}, !- Handle
  7,                                      !- Temperature Capacity Multiplier
  15,                                     !- Humidity Capacity Multiplier
  ;                                       !- Carbon Dioxide Capacity Multiplier

OS:ConvergenceLimits,
  {1cb29fb8-27c0-401b-bd2e-3c93cb620be3}, !- Handle
  0;                                      !- Minimum System Timestep {minutes}

OS:RunPeriod,
  {5b94fa29-ce04-44e7-aa1f-461c0fb24eb5}, !- Handle
  Run Period 1,                           !- Name
  1,                                      !- Begin Month
  1,                                      !- Begin Day of Month
  12,                                     !- End Month
  31,                                     !- End Day of Month
  ,                                       !- Use Weather File Holidays and Special Days
  ,                                       !- Use Weather File Daylight Saving Period
  ,                                       !- Apply Weekend Holiday Rule
  ,                                       !- Use Weather File Rain Indicators
  ,                                       !- Use Weather File Snow Indicators
  ;                                       !- Number of Times Runperiod to be Repeated

OS:PerformancePrecisionTradeoffs,
  {8b57aa90-4cca-4b72-b9df-34a454c390e3}, !- Handle
  ,                                       !- Use Coil Direct Solutions
  CarrollMRT;                             !- Zone Radiant Exchange Algorithm

OS:WeatherFile,
  {f516f007-0641-432d-8c9e-1859564d1917}, !- Handle
  Buffalo Niagara Intl Ap,                !- City
  NY,                                     !- State Province Region
  USA,                                    !- Country
  TMY3,                                   !- Data Source
  725280,                                 !- WMO Number
  42.93,                                  !- Latitude {deg}
  -78.73,                                 !- Longitude {deg}
  -5,                                     !- Time Zone {hr}
  215,                                    !- Elevation {m}
  /Users/nmoore/github/urbanopt-example-geojson-project/example_project/weather/USA_NY_Buffalo-Greater.Buffalo.Intl.AP.725280_TMY3.epw, !- Url
  6B50E0FF,                               !- Checksum
  ,                                       !- Start Date Actual Year
  Sunday;                                 !- Start Day of Week

OS:YearDescription,
  {4b6eacce-17c5-4a6f-b156-af6bb79ddae9}, !- Handle
  2007,                                   !- Calendar Year
  ,                                       !- Day of Week for Start Day
  ;                                       !- Is Leap Year

OS:Site,
  {4605d3b8-76a2-4eba-a80c-ba8fbb495d19}, !- Handle
  Buffalo Niagara Intl Ap_NY,             !- Name
  42.93,                                  !- Latitude {deg}
  -78.73,                                 !- Longitude {deg}
  -5,                                     !- Time Zone {hr}
  215,                                    !- Elevation {m}
  Suburbs,                                !- Terrain
  Yes;                                    !- Keep Site Location Information

OS:RunPeriodControl:DaylightSavingTime,
  {d169218a-6b8b-4a6e-abcb-004c7dd1a3a8}, !- Handle
  Mar 12,                                 !- Start Date
  Nov 5;                                  !- End Date

OS:Site:GroundTemperature:Shallow,
  {cd43e004-d45f-4f85-b3dc-3f7035e1f848}, !- Handle
  4.30207395723828,                       !- January Surface Ground Temperature {C}
  2.29327249652502,                       !- February Surface Ground Temperature {C}
  2.13240047156047,                       !- March Surface Ground Temperature {C}
  3.08567940719286,                       !- April Surface Ground Temperature {C}
  6.91256312497526,                       !- May Surface Ground Temperature {C}
  10.7216195949507,                       !- June Surface Ground Temperature {C}
  14.0238679822574,                       !- July Surface Ground Temperature {C}
  16.1157611184724,                       !- August Surface Ground Temperature {C}
  16.2934789303462,                       !- September Surface Ground Temperature {C}
  14.5920754632847,                       !- October Surface Ground Temperature {C}
  11.374036348653,                        !- November Surface Ground Temperature {C}
  7.68182621661674;                       !- December Surface Ground Temperature {C}

OS:ThermalZone,
  {530d0592-16b3-4cfc-acf8-d028bd1a5eff}, !- Handle
  conditioned space,                      !- Name
  1,                                      !- Multiplier
  ,                                       !- Ceiling Height {m}
  346.03186535424,                        !- Volume {m3}
  ,                                       !- Floor Area {m2}
  ,                                       !- Zone Inside Convection Algorithm
  ,                                       !- Zone Outside Convection Algorithm
  ,                                       !- Zone Conditioning Equipment List Name
  {54c5f110-735d-4d07-82d4-e71881c57b66}, !- Zone Air Inlet Port List
  {0a773671-f72d-49d5-acc7-47649718198b}, !- Zone Air Exhaust Port List
  {08a2aa3e-8fdc-4761-8ecb-77a6bc9c42c2}, !- Zone Air Node Name
  {414b08ec-7816-4552-9eae-6ae0ed227d33}, !- Zone Return Air Port List
  ,                                       !- Primary Daylighting Control Name
  ,                                       !- Fraction of Zone Controlled by Primary Daylighting Control
  ,                                       !- Secondary Daylighting Control Name
  ,                                       !- Fraction of Zone Controlled by Secondary Daylighting Control
  ,                                       !- Illuminance Map Name
  ,                                       !- Group Rendering Name
  {721fe5da-d176-496d-8455-e65ede699d7f}, !- Thermostat Name
  No;                                     !- Use Ideal Air Loads

OS:Node,
  {18dcbc7c-f959-40c1-9892-b38586b7ff04}, !- Handle
  Node 1,                                 !- Name
  {08a2aa3e-8fdc-4761-8ecb-77a6bc9c42c2}, !- Inlet Port
  ;                                       !- Outlet Port

OS:Connection,
  {08a2aa3e-8fdc-4761-8ecb-77a6bc9c42c2}, !- Handle
  {530d0592-16b3-4cfc-acf8-d028bd1a5eff}, !- Source Object
  11,                                     !- Outlet Port
  {18dcbc7c-f959-40c1-9892-b38586b7ff04}, !- Target Object
  2;                                      !- Inlet Port

OS:PortList,
  {54c5f110-735d-4d07-82d4-e71881c57b66}, !- Handle
  {530d0592-16b3-4cfc-acf8-d028bd1a5eff}, !- HVAC Component
  {9ebdbbc6-3170-4325-bc78-cc17198c72d2}; !- Port 1

OS:PortList,
  {0a773671-f72d-49d5-acc7-47649718198b}, !- Handle
  {530d0592-16b3-4cfc-acf8-d028bd1a5eff}; !- HVAC Component

OS:PortList,
  {414b08ec-7816-4552-9eae-6ae0ed227d33}, !- Handle
  {530d0592-16b3-4cfc-acf8-d028bd1a5eff}, !- HVAC Component
  {120bb075-7b2a-44c5-bad6-875d711e01a5}; !- Port 1

OS:Sizing:Zone,
  {967e4cd8-d532-47d4-a1c5-823fd8528d8e}, !- Handle
  {530d0592-16b3-4cfc-acf8-d028bd1a5eff}, !- Zone or ZoneList Name
  SupplyAirTemperature,                   !- Zone Cooling Design Supply Air Temperature Input Method
  14,                                     !- Zone Cooling Design Supply Air Temperature {C}
  11.11,                                  !- Zone Cooling Design Supply Air Temperature Difference {deltaC}
  SupplyAirTemperature,                   !- Zone Heating Design Supply Air Temperature Input Method
  40,                                     !- Zone Heating Design Supply Air Temperature {C}
  11.11,                                  !- Zone Heating Design Supply Air Temperature Difference {deltaC}
  0.0085,                                 !- Zone Cooling Design Supply Air Humidity Ratio {kg-H2O/kg-air}
  0.008,                                  !- Zone Heating Design Supply Air Humidity Ratio {kg-H2O/kg-air}
  ,                                       !- Zone Heating Sizing Factor
  ,                                       !- Zone Cooling Sizing Factor
  DesignDay,                              !- Cooling Design Air Flow Method
  ,                                       !- Cooling Design Air Flow Rate {m3/s}
  ,                                       !- Cooling Minimum Air Flow per Zone Floor Area {m3/s-m2}
  ,                                       !- Cooling Minimum Air Flow {m3/s}
  ,                                       !- Cooling Minimum Air Flow Fraction
  DesignDay,                              !- Heating Design Air Flow Method
  ,                                       !- Heating Design Air Flow Rate {m3/s}
  ,                                       !- Heating Maximum Air Flow per Zone Floor Area {m3/s-m2}
  ,                                       !- Heating Maximum Air Flow {m3/s}
  ,                                       !- Heating Maximum Air Flow Fraction
  No,                                     !- Account for Dedicated Outdoor Air System
  NeutralSupplyAir,                       !- Dedicated Outdoor Air System Control Strategy
  autosize,                               !- Dedicated Outdoor Air Low Setpoint Temperature for Design {C}
  autosize,                               !- Dedicated Outdoor Air High Setpoint Temperature for Design {C}
  Sensible Load Only No Latent Load,      !- Zone Load Sizing Method
  HumidityRatioDifference,                !- Zone Latent Cooling Design Supply Air Humidity Ratio Input Method
  ,                                       !- Zone Dehumidification Design Supply Air Humidity Ratio {kgWater/kgDryAir}
  0.005,                                  !- Zone Cooling Design Supply Air Humidity Ratio Difference {kgWater/kgDryAir}
  HumidityRatioDifference,                !- Zone Latent Heating Design Supply Air Humidity Ratio Input Method
  ,                                       !- Zone Humidification Design Supply Air Humidity Ratio {kgWater/kgDryAir}
  0.005,                                  !- Zone Humidification Design Supply Air Humidity Ratio Difference {kgWater/kgDryAir}
  ,                                       !- Zone Humidistat Dehumidification Set Point Schedule Name
  ,                                       !- Zone Humidistat Humidification Set Point Schedule Name
  ,                                       !- Design Zone Air Distribution Effectiveness in Cooling Mode
  ,                                       !- Design Zone Air Distribution Effectiveness in Heating Mode
  ,                                       !- Design Zone Secondary Recirculation Fraction {dimensionless}
  ,                                       !- Design Minimum Zone Ventilation Efficiency {dimensionless}
  Coincident;                             !- Sizing Option

OS:ZoneHVAC:EquipmentList,
  {c0e16bd0-fc6e-49f9-a8de-24948900ed84}, !- Handle
  Zone HVAC Equipment List 1,             !- Name
  {530d0592-16b3-4cfc-acf8-d028bd1a5eff}, !- Thermal Zone
  ,                                       !- Load Distribution Scheme
  {898b6d70-6bfc-4bfc-a790-14e7e5fe4fdf}, !- Zone Equipment 1
  1,                                      !- Zone Equipment Cooling Sequence 1
  1,                                      !- Zone Equipment Heating or No-Load Sequence 1
  {57010903-30e1-4d4a-87aa-831fb68a38cc}, !- Zone Equipment Sequential Cooling Fraction Schedule Name 1
  {5fb3ea82-230a-48d7-8012-29a559244d19}; !- Zone Equipment Sequential Heating Fraction Schedule Name 1

OS:AdditionalProperties,
  {51c1c1f1-e3b6-44d8-87e0-2b32bd959181}, !- Handle
  {530d0592-16b3-4cfc-acf8-d028bd1a5eff}, !- Object Name
  ObjectType,                             !- Feature Name 1
  String,                                 !- Feature Data Type 1
  conditioned space;                      !- Feature Value 1

OS:Space,
  {3f2c333b-87dd-42e3-afb0-ec37cccfd0b2}, !- Handle
  conditioned space 1,                    !- Name
  ,                                       !- Space Type Name
  ,                                       !- Default Construction Set Name
  ,                                       !- Default Schedule Set Name
  ,                                       !- Direction of Relative North {deg}
  ,                                       !- X Origin {m}
  ,                                       !- Y Origin {m}
  ,                                       !- Z Origin {m}
  ,                                       !- Building Story Name
  {530d0592-16b3-4cfc-acf8-d028bd1a5eff}, !- Thermal Zone Name
  ,                                       !- Part of Total Floor Area
  ,                                       !- Design Specification Outdoor Air Object Name
  ,                                       !- Building Unit Name
  346.03186535424;                        !- Volume {m3}

OS:Schedule:Ruleset,
  {22e38532-0025-4b17-87a9-b00e7c7837bb}, !- Handle
  heating setpoint,                       !- Name
  {1094a0e0-9719-46ba-9cd9-a622ec903bed}, !- Schedule Type Limits Name
  {6dce4e63-00e4-42d1-8b51-2793fdc5bead}; !- Default Day Schedule Name

OS:Schedule:Day,
  {6dce4e63-00e4-42d1-8b51-2793fdc5bead}, !- Handle
  heating setpoint default day,           !- Name
  {1094a0e0-9719-46ba-9cd9-a622ec903bed}, !- Schedule Type Limits Name
  ,                                       !- Interpolate to Timestep
  24,                                     !- Hour 1
  0,                                      !- Minute 1
  0;                                      !- Value Until Time 1

OS:Schedule:Rule,
  {c097e793-9854-4b66-bf56-b5f8b3fb6f6f}, !- Handle
  heating setpoint allday rule,           !- Name
  {22e38532-0025-4b17-87a9-b00e7c7837bb}, !- Schedule Ruleset Name
  0,                                      !- Rule Order
  {9e465386-2552-4fff-9d44-9c3ed2ecc660}, !- Day Schedule Name
  Yes,                                    !- Apply Sunday
  Yes,                                    !- Apply Monday
  Yes,                                    !- Apply Tuesday
  Yes,                                    !- Apply Wednesday
  Yes,                                    !- Apply Thursday
  Yes,                                    !- Apply Friday
  Yes,                                    !- Apply Saturday
  DateRange,                              !- Date Specification Type
  1,                                      !- Start Month
  1,                                      !- Start Day
  12,                                     !- End Month
  31;                                     !- End Day

OS:Schedule:Day,
  {9e465386-2552-4fff-9d44-9c3ed2ecc660}, !- Handle
  heating setpoint day,                   !- Name
  {1094a0e0-9719-46ba-9cd9-a622ec903bed}, !- Schedule Type Limits Name
  ,                                       !- Interpolate to Timestep
  24,                                     !- Hour 1
  0,                                      !- Minute 1
  20;                                     !- Value Until Time 1

OS:Schedule:Ruleset,
  {840811bb-9ef2-47dc-8e0c-2fbd9a3730b1}, !- Handle
  cooling setpoint,                       !- Name
  {1094a0e0-9719-46ba-9cd9-a622ec903bed}, !- Schedule Type Limits Name
  {72cda2d2-b120-47bc-84bd-69052a38dd98}; !- Default Day Schedule Name

OS:Schedule:Day,
  {72cda2d2-b120-47bc-84bd-69052a38dd98}, !- Handle
  cooling setpoint default day,           !- Name
  {1094a0e0-9719-46ba-9cd9-a622ec903bed}, !- Schedule Type Limits Name
  ,                                       !- Interpolate to Timestep
  24,                                     !- Hour 1
  0,                                      !- Minute 1
  0;                                      !- Value Until Time 1

OS:Schedule:Rule,
  {39a579f1-87ad-4cc3-97e8-db545b328438}, !- Handle
  cooling setpoint allday rule,           !- Name
  {840811bb-9ef2-47dc-8e0c-2fbd9a3730b1}, !- Schedule Ruleset Name
  0,                                      !- Rule Order
  {3f12e3f2-16f4-4f3a-96f5-0881fa46210a}, !- Day Schedule Name
  Yes,                                    !- Apply Sunday
  Yes,                                    !- Apply Monday
  Yes,                                    !- Apply Tuesday
  Yes,                                    !- Apply Wednesday
  Yes,                                    !- Apply Thursday
  Yes,                                    !- Apply Friday
  Yes,                                    !- Apply Saturday
  DateRange,                              !- Date Specification Type
  1,                                      !- Start Month
  1,                                      !- Start Day
  12,                                     !- End Month
  31;                                     !- End Day

OS:Schedule:Day,
  {3f12e3f2-16f4-4f3a-96f5-0881fa46210a}, !- Handle
  cooling setpoint day,                   !- Name
  {1094a0e0-9719-46ba-9cd9-a622ec903bed}, !- Schedule Type Limits Name
  ,                                       !- Interpolate to Timestep
  24,                                     !- Hour 1
  0,                                      !- Minute 1
  25.5555555555556;                       !- Value Until Time 1

OS:ThermostatSetpoint:DualSetpoint,
  {721fe5da-d176-496d-8455-e65ede699d7f}, !- Handle
  conditioned space temperature setpoint, !- Name
  {22e38532-0025-4b17-87a9-b00e7c7837bb}, !- Heating Setpoint Temperature Schedule Name
  {840811bb-9ef2-47dc-8e0c-2fbd9a3730b1}, !- Cooling Setpoint Temperature Schedule Name
  0;                                      !- Temperature Difference Between Cutout And Setpoint {deltaC}

OS:ScheduleTypeLimits,
  {1094a0e0-9719-46ba-9cd9-a622ec903bed}, !- Handle
  Temperature,                            !- Name
  ,                                       !- Lower Limit Value
  ,                                       !- Upper Limit Value
  Continuous,                             !- Numeric Type
  Temperature;                            !- Unit Type

OS:Surface,
  {ed9aab59-cf19-49e7-b543-d4d33fe44e72}, !- Handle
  Roof1,                                  !- Name
  RoofCeiling,                            !- Surface Type
  {89779e2e-fde3-4b01-bfa3-36fb5223eb1b}, !- Construction Name
  {3f2c333b-87dd-42e3-afb0-ec37cccfd0b2}, !- Space Name
  Outdoors,                               !- Outside Boundary Condition
  ,                                       !- Outside Boundary Condition Object
  SunExposed,                             !- Sun Exposure
  WindExposed,                            !- Wind Exposure
  ,                                       !- View Factor to Ground
  ,                                       !- Number of Vertices
  -4.86320793386423, 4.86320793386423, 2.4384, !- X,Y,Z Vertex 1 {m}
  -4.86320793386423, -4.86320793386423, 2.4384, !- X,Y,Z Vertex 2 {m}
  4.86320793386423, -4.86320793386423, 2.4384, !- X,Y,Z Vertex 3 {m}
  4.86320793386423, 4.86320793386423, 2.4384; !- X,Y,Z Vertex 4 {m}

OS:AdditionalProperties,
  {48ca0213-6a4b-47e3-9fe0-b9d38cf18a39}, !- Handle
  {ed9aab59-cf19-49e7-b543-d4d33fe44e72}, !- Object Name
  Length,                                 !- Feature Name 1
  Double,                                 !- Feature Data Type 1
  31.910813214332222,                     !- Feature Value 1
  Width,                                  !- Feature Name 2
  Double,                                 !- Feature Data Type 2
  31.910813214332222,                     !- Feature Value 2
  Azimuth,                                !- Feature Name 3
  Integer,                                !- Feature Data Type 3
  0,                                      !- Feature Value 3
  Tilt,                                   !- Feature Name 4
  Double,                                 !- Feature Data Type 4
  0,                                      !- Feature Value 4
  SurfaceType,                            !- Feature Name 5
  String,                                 !- Feature Data Type 5
  Roof;                                   !- Feature Value 5

OS:Material,
  {ead1514e-269c-4f24-8cbb-759019cbb927}, !- Handle
  asphalt or fiberglass shingles,         !- Name
  Rough,                                  !- Roughness
  0.00635,                                !- Thickness {m}
  0.162714,                               !- Conductivity {W/m-K}
  1121.4,                                 !- Density {kg/m3}
  1465.45,                                !- Specific Heat {J/kg-K}
  0.9,                                    !- Thermal Absorptance
  0.85,                                   !- Solar Absorptance
  0.85;                                   !- Visible Absorptance

OS:Material,
  {73a594ec-8994-457a-95f6-e0855c17210a}, !- Handle
  roof stud and cavity,                   !- Name
  Rough,                                  !- Roughness
  0.0889,                                 !- Thickness {m}
  0.491900632004487,                      !- Conductivity {W/m-K}
  50.32683,                               !- Density {kg/m3}
  1063.80987585548,                       !- Specific Heat {J/kg-K}
  0.9,                                    !- Thermal Absorptance
  0.7,                                    !- Solar Absorptance
  0.7;                                    !- Visible Absorptance

OS:Material,
  {73577971-686a-43b9-925a-c482fbddb5ec}, !- Handle
  gypsum board,                           !- Name
  Rough,                                  !- Roughness
  0.00254,                                !- Thickness {m}
  0.1602906,                              !- Conductivity {W/m-K}
  801,                                    !- Density {kg/m3}
  837.4,                                  !- Specific Heat {J/kg-K}
  0.9,                                    !- Thermal Absorptance
  0.6,                                    !- Solar Absorptance
  0.6;                                    !- Visible Absorptance

OS:Construction,
  {89779e2e-fde3-4b01-bfa3-36fb5223eb1b}, !- Handle
  Roof1 construction,                     !- Name
  ,                                       !- Surface Rendering Name
  {ead1514e-269c-4f24-8cbb-759019cbb927}, !- Layer 1
  {73a594ec-8994-457a-95f6-e0855c17210a}, !- Layer 2
  {73577971-686a-43b9-925a-c482fbddb5ec}; !- Layer 3

OS:Surface,
  {524c46c1-49de-4e80-8f1f-b90bb5c604bb}, !- Handle
  Wall1,                                  !- Name
  Wall,                                   !- Surface Type
  {3a66674d-a715-4e98-9aa7-9dc0a446d9bc}, !- Construction Name
  {3f2c333b-87dd-42e3-afb0-ec37cccfd0b2}, !- Space Name
  Outdoors,                               !- Outside Boundary Condition
  ,                                       !- Outside Boundary Condition Object
  SunExposed,                             !- Sun Exposure
  WindExposed,                            !- Wind Exposure
  ,                                       !- View Factor to Ground
  ,                                       !- Number of Vertices
  -24.069675, 24.9987054, 0,              !- X,Y,Z Vertex 1 {m}
  -24.069675, 24.9987054, 4.8768,         !- X,Y,Z Vertex 2 {m}
  -17.192625, 24.9987054, 4.8768,         !- X,Y,Z Vertex 3 {m}
  -17.192625, 24.9987054, 0;              !- X,Y,Z Vertex 4 {m}

OS:AdditionalProperties,
  {3cf19ede-2865-4716-a3bd-c6ae9fa7ed19}, !- Handle
  {524c46c1-49de-4e80-8f1f-b90bb5c604bb}, !- Object Name
  Length,                                 !- Feature Name 1
  Double,                                 !- Feature Data Type 1
  22.5625,                                !- Feature Value 1
  Azimuth,                                !- Feature Name 2
  Integer,                                !- Feature Data Type 2
  0,                                      !- Feature Value 2
  Tilt,                                   !- Feature Name 3
  Double,                                 !- Feature Data Type 3
  90,                                     !- Feature Value 3
  SurfaceType,                            !- Feature Name 4
  String,                                 !- Feature Data Type 4
  Wall;                                   !- Feature Value 4

OS:Material,
  {01e6d801-9032-46d2-8a84-e7eafaf70db6}, !- Handle
  wood siding,                            !- Name
  Rough,                                  !- Roughness
  0.0254,                                 !- Thickness {m}
  0.1024175,                              !- Conductivity {W/m-K}
  544.68,                                 !- Density {kg/m3}
  1172.36,                                !- Specific Heat {J/kg-K}
  0.9,                                    !- Thermal Absorptance
  0.7,                                    !- Solar Absorptance
  0.7;                                    !- Visible Absorptance

OS:Material,
  {f786f784-9bf8-4c82-8d8e-5e1409d64578}, !- Handle
  osb sheathing 0.5 in.,                  !- Name
  Rough,                                  !- Roughness
  0.0127,                                 !- Thickness {m}
  0.1154577,                              !- Conductivity {W/m-K}
  512.64,                                 !- Density {kg/m3}
  1214.23,                                !- Specific Heat {J/kg-K}
  0.9,                                    !- Thermal Absorptance
  0.7,                                    !- Solar Absorptance
  0.7;                                    !- Visible Absorptance

OS:Material,
  {8bca1874-bc44-4c27-adb0-ba8dcdf6af68}, !- Handle
  wall stud and cavity,                   !- Name
  Rough,                                  !- Roughness
  0.1397,                                 !- Thickness {m}
  0.0929021674204099,                     !- Conductivity {W/m-K}
  139.0536,                               !- Density {kg/m3}
  1170.23755760369,                       !- Specific Heat {J/kg-K}
  0.9,                                    !- Thermal Absorptance
  0.7,                                    !- Solar Absorptance
  0.7;                                    !- Visible Absorptance

OS:Material,
  {327be9e4-65ed-42f7-a214-2f1f10af612d}, !- Handle
  gypsum board 1,                         !- Name
  Rough,                                  !- Roughness
  0.0127,                                 !- Thickness {m}
  0.1602906,                              !- Conductivity {W/m-K}
  801,                                    !- Density {kg/m3}
  837.4,                                  !- Specific Heat {J/kg-K}
  0.9,                                    !- Thermal Absorptance
  0.6,                                    !- Solar Absorptance
  0.6;                                    !- Visible Absorptance

OS:Construction,
  {3a66674d-a715-4e98-9aa7-9dc0a446d9bc}, !- Handle
  Wall1 construction,                     !- Name
  ,                                       !- Surface Rendering Name
  {01e6d801-9032-46d2-8a84-e7eafaf70db6}, !- Layer 1
  {f786f784-9bf8-4c82-8d8e-5e1409d64578}, !- Layer 2
  {8bca1874-bc44-4c27-adb0-ba8dcdf6af68}, !- Layer 3
  {327be9e4-65ed-42f7-a214-2f1f10af612d}; !- Layer 4

OS:Surface,
  {9fe5c2fb-d56c-4281-8164-bbbc66e02d12}, !- Handle
  Wall2,                                  !- Name
  Wall,                                   !- Surface Type
  {30314b55-a204-486c-833d-5c39743b2b2e}, !- Construction Name
  {3f2c333b-87dd-42e3-afb0-ec37cccfd0b2}, !- Space Name
  Outdoors,                               !- Outside Boundary Condition
  ,                                       !- Outside Boundary Condition Object
  SunExposed,                             !- Sun Exposure
  WindExposed,                            !- Wind Exposure
  ,                                       !- View Factor to Ground
  ,                                       !- Number of Vertices
  24.9987054, -21.5601804, 0,             !- X,Y,Z Vertex 1 {m}
  24.9987054, -21.5601804, 4.8768,        !- X,Y,Z Vertex 2 {m}
  24.9987054, -24.9987054, 4.8768,        !- X,Y,Z Vertex 3 {m}
  24.9987054, -24.9987054, 0;             !- X,Y,Z Vertex 4 {m}

OS:AdditionalProperties,
  {7bc57f50-f1fa-400c-af15-24205f68e926}, !- Handle
  {9fe5c2fb-d56c-4281-8164-bbbc66e02d12}, !- Object Name
  Length,                                 !- Feature Name 1
  Double,                                 !- Feature Data Type 1
  11.28125,                               !- Feature Value 1
  Azimuth,                                !- Feature Name 2