
OS:Version,
  {0c8bc7ab-3900-4fa6-b702-4c056b930fd5}, !- Handle
  3.10.0;                                 !- Version Identifier

OS:SimulationControl,
  {6b0bb762-6002-4b82-b8fe-bae314797f86}, !- Handle
  ,                                       !- Do Zone Sizing Calculation
  ,                                       !- Do System Sizing Calculation
  ,                                       !- Do Plant Sizing Calculation
  No;                                     !- Run Simulation for Sizing Periods

OS:Timestep,
  {71ecf86d-264a-40a4-b78a-593cc3133a1c}, !- Handle
  1;                                      !- Number of Timesteps per Hour

OS:ShadowCalculation,
  {fe91bbdf-3233-4b9b-8d25-63b38534c0e5}, !- Handle
  PolygonClipping,                        !- Shading Calculation Method
  ,                                       !- Shading Calculation Update Frequency Method
  20,                                     !- Shading Calculation Update Frequency
  200,                                    !- Maximum Figures in Shadow Overlap Calculations
  ,                                       !- Polygon Clipping Algorithm
  512,                                    !- Pixel Counting Resolution
  ,                                       !- Sky Diffuse Modeling Algorithm
  No,                                     !- Output External Shading Calculation Results
  No,                                     !- Disable Self-Shading Within Shading Zone Groups
  No;                                     !- Disable Self-Shading From Shading Zone Groups to Other Zones

OS:SurfaceConvectionAlgorithm:Outside,
  {e7b0e7c3-66b7-46bd-b185-075a7a97b79d}, !- Handle
  DOE-2;                                  !- Algorithm

OS:SurfaceConvectionAlgorithm:Inside,
  {4be010b0-5212-4c54-a27d-98a30bb92cc4}, !- Handle
  TARP;                                   !- Algorithm

OS:ZoneCapacitanceMultiplier:ResearchSpecial,
  {937429df-ad3c-4757-90f2-1b46ae9d1dc7}, !- Handle
  7,                                      !- Temperature Capacity Multiplier
  15,                                     !- Humidity Capacity Multiplier
  ;                                       !- Carbon Dioxide Capacity Multiplier

OS:ConvergenceLimits,
  {1ae5ecaa-aa70-4a33-b57f-004acb4c4b32}, !- Handle
  0;                                      !- Minimum System Timestep {minutes}

OS:RunPeriod,
  {645c1361-8e85-418c-8ade-bb575d3d9056}, !- Handle
  Run Period 1,                           !- Name
  1,                                      !- Begin Month
  1,                                      !- Begin Day of Month
  12,                                     !- End Month
  31,                                     !- End Day of Month
  ,                                       !- Use Weather File Holidays and Special Days
  ,                                       !- Use Weather File Daylight Saving Period
  ,                                       !- Apply Weekend Holiday Rule
  ,                                       !- Use Weather File Rain Indicators
  ,                                       !- Use Weather File Snow Indicators
  ;                                       !- Number of Times Runperiod to be Repeated

OS:PerformancePrecisionTradeoffs,
  {88d48e62-8c66-4fd5-add4-546343eabc33}, !- Handle
  ,                                       !- Use Coil Direct Solutions
  CarrollMRT;                             !- Zone Radiant Exchange Algorithm

OS:WeatherFile,
  {3d074f10-4a52-4c3a-a064-6c341f296e9a}, !- Handle
  Buffalo Niagara Intl Ap,                !- City
  NY,                                     !- State Province Region
  USA,                                    !- Country
  TMY3,                                   !- Data Source
  725280,                                 !- WMO Number
  42.93,                                  !- Latitude {deg}
  -78.73,                                 !- Longitude {deg}
  -5,                                     !- Time Zone {hr}
  215,                                    !- Elevation {m}
  /Users/nmoore/github/urbanopt-example-geojson-project/example_project/weather/USA_NY_Buffalo-Greater.Buffalo.Intl.AP.725280_TMY3.epw, !- Url
  6B50E0FF,                               !- Checksum
  ,                                       !- Start Date Actual Year
  Sunday;                                 !- Start Day of Week

OS:YearDescription,
  {497ffcd8-5910-4a80-8aa7-d6b6c9812e65}, !- Handle
  2007,                                   !- Calendar Year
  ,                                       !- Day of Week for Start Day
  ;                                       !- Is Leap Year

OS:Site,
  {b1be0734-65a3-4d49-8aff-49f6c44d2f4a}, !- Handle
  Buffalo Niagara Intl Ap_NY,             !- Name
  42.93,                                  !- Latitude {deg}
  -78.73,                                 !- Longitude {deg}
  -5,                                     !- Time Zone {hr}
  215,                                    !- Elevation {m}
  Suburbs,                                !- Terrain
  Yes;                                    !- Keep Site Location Information

OS:RunPeriodControl:DaylightSavingTime,
  {3fde5316-c63d-4a6d-875a-419e3afedcb4}, !- Handle
  Mar 12,                                 !- Start Date
  Nov 5;                                  !- End Date

OS:Site:GroundTemperature:Shallow,
  {e2772be9-fc55-4984-9398-eaa28ac7e720}, !- Handle
  4.30207395723828,                       !- January Surface Ground Temperature {C}
  2.29327249652502,                       !- February Surface Ground Temperature {C}
  2.13240047156047,                       !- March Surface Ground Temperature {C}
  3.08567940719286,                       !- April Surface Ground Temperature {C}
  6.91256312497526,                       !- May Surface Ground Temperature {C}
  10.7216195949507,                       !- June Surface Ground Temperature {C}
  14.0238679822574,                       !- July Surface Ground Temperature {C}
  16.1157611184724,                       !- August Surface Ground Temperature {C}
  16.2934789303462,                       !- September Surface Ground Temperature {C}
  14.5920754632847,                       !- October Surface Ground Temperature {C}
  11.374036348653,                        !- November Surface Ground Temperature {C}
  7.68182621661674;                       !- December Surface Ground Temperature {C}

OS:Site:GroundTemperature:Deep,
  {a4736a05-ffc6-4341-b4d5-03a36fd2cf89}, !- Handle
  10,                                     !- January Deep Ground Temperature {C}
  10,                                     !- February Deep Ground Temperature {C}
  10,                                     !- March Deep Ground Temperature {C}
  10,                                     !- April Deep Ground Temperature {C}
  10,                                     !- May Deep Ground Temperature {C}
  10,                                     !- June Deep Ground Temperature {C}
  10,                                     !- July Deep Ground Temperature {C}
  10,                                     !- August Deep Ground Temperature {C}
  10,                                     !- September Deep Ground Temperature {C}
  10,                                     !- October Deep Ground Temperature {C}
  10,                                     !- November Deep Ground Temperature {C}
  10;                                     !- December Deep Ground Temperature {C}

OS:ThermalZone,
  {b240bea5-3cd2-490d-8537-cb3fc0f711d4}, !- Handle
  conditioned space,                      !- Name
  1,                                      !- Multiplier
  ,                                       !- Ceiling Height {m}
  692.06373070848,                        !- Volume {m3}
  ,                                       !- Floor Area {m2}
  ,                                       !- Zone Inside Convection Algorithm
  ,                                       !- Zone Outside Convection Algorithm
  ,                                       !- Zone Conditioning Equipment List Name
  {7823672c-2a03-4c44-be24-a053059e7072}, !- Zone Air Inlet Port List
  {9a7475b8-4cee-4144-a3e2-cf162b36b1c4}, !- Zone Air Exhaust Port List
  {6641d3ad-8e6e-4664-b155-d5877379d832}, !- Zone Air Node Name
  {fc5cf16c-e21b-4dfc-baf0-37c785b364a4}, !- Zone Return Air Port List
  ,                                       !- Primary Daylighting Control Name
  ,                                       !- Fraction of Zone Controlled by Primary Daylighting Control
  ,                                       !- Secondary Daylighting Control Name
  ,                                       !- Fraction of Zone Controlled by Secondary Daylighting Control
  ,                                       !- Illuminance Map Name
  ,                                       !- Group Rendering Name
  {f34084fc-e4eb-405e-9051-26cefebe240a}, !- Thermostat Name
  No;                                     !- Use Ideal Air Loads

OS:Node,
  {8750491a-42ac-439e-8da5-b8b31fd7832c}, !- Handle
  Node 1,                                 !- Name
  {6641d3ad-8e6e-4664-b155-d5877379d832}, !- Inlet Port
  ;                                       !- Outlet Port

OS:Connection,
  {6641d3ad-8e6e-4664-b155-d5877379d832}, !- Handle
  {b240bea5-3cd2-490d-8537-cb3fc0f711d4}, !- Source Object
  11,                                     !- Outlet Port
  {8750491a-42ac-439e-8da5-b8b31fd7832c}, !- Target Object
  2;                                      !- Inlet Port

OS:PortList,
  {7823672c-2a03-4c44-be24-a053059e7072}, !- Handle
  {b240bea5-3cd2-490d-8537-cb3fc0f711d4}, !- HVAC Component
  {28e7ed4f-043c-4882-a0af-1400136500af}; !- Port 1

OS:PortList,
  {9a7475b8-4cee-4144-a3e2-cf162b36b1c4}, !- Handle
  {b240bea5-3cd2-490d-8537-cb3fc0f711d4}; !- HVAC Component

OS:PortList,
  {fc5cf16c-e21b-4dfc-baf0-37c785b364a4}, !- Handle
  {b240bea5-3cd2-490d-8537-cb3fc0f711d4}, !- HVAC Component
  {88b87976-6a4d-4b51-bea4-5fa4c973b2c0}; !- Port 1

OS:Sizing:Zone,
  {5b6b4e57-471a-4ff1-a1cd-c62c26855de4}, !- Handle
  {b240bea5-3cd2-490d-8537-cb3fc0f711d4}, !- Zone or ZoneList Name
  SupplyAirTemperature,                   !- Zone Cooling Design Supply Air Temperature Input Method
  14,                                     !- Zone Cooling Design Supply Air Temperature {C}
  11.11,                                  !- Zone Cooling Design Supply Air Temperature Difference {deltaC}
  SupplyAirTemperature,                   !- Zone Heating Design Supply Air Temperature Input Method
  40,                                     !- Zone Heating Design Supply Air Temperature {C}
  11.11,                                  !- Zone Heating Design Supply Air Temperature Difference {deltaC}
  0.0085,                                 !- Zone Cooling Design Supply Air Humidity Ratio {kg-H2O/kg-air}
  0.008,                                  !- Zone Heating Design Supply Air Humidity Ratio {kg-H2O/kg-air}
  ,                                       !- Zone Heating Sizing Factor
  ,                                       !- Zone Cooling Sizing Factor
  DesignDay,                              !- Cooling Design Air Flow Method
  ,                                       !- Cooling Design Air Flow Rate {m3/s}
  ,                                       !- Cooling Minimum Air Flow per Zone Floor Area {m3/s-m2}
  ,                                       !- Cooling Minimum Air Flow {m3/s}
  ,                                       !- Cooling Minimum Air Flow Fraction
  DesignDay,                              !- Heating Design Air Flow Method
  ,                                       !- Heating Design Air Flow Rate {m3/s}
  ,                                       !- Heating Maximum Air Flow per Zone Floor Area {m3/s-m2}
  ,                                       !- Heating Maximum Air Flow {m3/s}
  ,                                       !- Heating Maximum Air Flow Fraction
  No,                                     !- Account for Dedicated Outdoor Air System
  NeutralSupplyAir,                       !- Dedicated Outdoor Air System Control Strategy
  autosize,                               !- Dedicated Outdoor Air Low Setpoint Temperature for Design {C}
  autosize,                               !- Dedicated Outdoor Air High Setpoint Temperature for Design {C}
  Sensible Load Only No Latent Load,      !- Zone Load Sizing Method
  HumidityRatioDifference,                !- Zone Latent Cooling Design Supply Air Humidity Ratio Input Method
  ,                                       !- Zone Dehumidification Design Supply Air Humidity Ratio {kgWater/kgDryAir}
  0.005,                                  !- Zone Cooling Design Supply Air Humidity Ratio Difference {kgWater/kgDryAir}
  HumidityRatioDifference,                !- Zone Latent Heating Design Supply Air Humidity Ratio Input Method
  ,                                       !- Zone Humidification Design Supply Air Humidity Ratio {kgWater/kgDryAir}
  0.005,                                  !- Zone Humidification Design Supply Air Humidity Ratio Difference {kgWater/kgDryAir}
  ,                                       !- Zone Humidistat Dehumidification Set Point Schedule Name
  ,                                       !- Zone Humidistat Humidification Set Point Schedule Name
  ,                                       !- Design Zone Air Distribution Effectiveness in Cooling Mode
  ,                                       !- Design Zone Air Distribution Effectiveness in Heating Mode
  ,                                       !- Design Zone Secondary Recirculation Fraction {dimensionless}
  ,                                       !- Design Minimum Zone Ventilation Efficiency {dimensionless}
  Coincident;                             !- Sizing Option

OS:ZoneHVAC:EquipmentList,
  {d338ec6d-c524-4e4b-85c6-25e3b24af9da}, !- Handle
  Zone HVAC Equipment List 1,             !- Name
  {b240bea5-3cd2-490d-8537-cb3fc0f711d4}, !- Thermal Zone
  ,                                       !- Load Distribution Scheme
  {cae0ff0d-3715-4ca3-bfc5-1fa6e3206e5d}, !- Zone Equipment 1
  1,                                      !- Zone Equipment Cooling Sequence 1
  1,                                      !- Zone Equipment Heating or No-Load Sequence 1
  {153a1d75-207d-4561-8be7-b3abac17b30d}, !- Zone Equipment Sequential Cooling Fraction Schedule Name 1
  {8e26a498-8fa2-49db-83bc-f69a1ee9852e}; !- Zone Equipment Sequential Heating Fraction Schedule Name 1

OS:AdditionalProperties,
  {d30243f1-0dae-4dd4-88f8-70ab38a2b69a}, !- Handle
  {b240bea5-3cd2-490d-8537-cb3fc0f711d4}, !- Object Name
  ObjectType,                             !- Feature Name 1
  String,                                 !- Feature Data Type 1
  conditioned space;                      !- Feature Value 1

OS:Space,
  {59738662-58af-41c4-a901-53f2488c1e8c}, !- Handle
  conditioned space 1,                    !- Name
  ,                                       !- Space Type Name
  ,                                       !- Default Construction Set Name
  ,                                       !- Default Schedule Set Name
  ,                                       !- Direction of Relative North {deg}
  ,                                       !- X Origin {m}
  ,                                       !- Y Origin {m}
  ,                                       !- Z Origin {m}
  ,                                       !- Building Story Name
  {b240bea5-3cd2-490d-8537-cb3fc0f711d4}, !- Thermal Zone Name
  ,                                       !- Part of Total Floor Area
  ,                                       !- Design Specification Outdoor Air Object Name
  ,                                       !- Building Unit Name
  692.06373070848;                        !- Volume {m3}

OS:Schedule:Ruleset,
  {24a10fee-763b-4e1b-9074-f060a41a072f}, !- Handle
  heating setpoint,                       !- Name
  {8d831688-c3ef-4247-bdf9-36d95e34ef33}, !- Schedule Type Limits Name
  {e92d9b15-e012-47b4-bfb8-67b3b1d94440}; !- Default Day Schedule Name

OS:Schedule:Day,
  {e92d9b15-e012-47b4-bfb8-67b3b1d94440}, !- Handle
  heating setpoint default day,           !- Name
  {8d831688-c3ef-4247-bdf9-36d95e34ef33}, !- Schedule Type Limits Name
  ,                                       !- Interpolate to Timestep
  24,                                     !- Hour 1
  0,                                      !- Minute 1
  0;                                      !- Value Until Time 1

OS:Schedule:Rule,
  {44bcecd9-beff-4339-abaf-bbcb02edc293}, !- Handle
  heating setpoint allday rule,           !- Name
  {24a10fee-763b-4e1b-9074-f060a41a072f}, !- Schedule Ruleset Name
  0,                                      !- Rule Order
  {6acbfa15-6403-4a31-afb5-453ddfc3a05c}, !- Day Schedule Name
  Yes,                                    !- Apply Sunday
  Yes,                                    !- Apply Monday
  Yes,                                    !- Apply Tuesday
  Yes,                                    !- Apply Wednesday
  Yes,                                    !- Apply Thursday
  Yes,                                    !- Apply Friday
  Yes,                                    !- Apply Saturday
  DateRange,                              !- Date Specification Type
  1,                                      !- Start Month
  1,                                      !- Start Day
  12,                                     !- End Month
  31;                                     !- End Day

OS:Schedule:Day,
  {6acbfa15-6403-4a31-afb5-453ddfc3a05c}, !- Handle
  heating setpoint day,                   !- Name
  {8d831688-c3ef-4247-bdf9-36d95e34ef33}, !- Schedule Type Limits Name
  ,                                       !- Interpolate to Timestep
  24,                                     !- Hour 1
  0,                                      !- Minute 1
  20;                                     !- Value Until Time 1

OS:Schedule:Ruleset,
  {32883dfd-54fb-42f2-9572-51bac000ea0e}, !- Handle
  cooling setpoint,                       !- Name
  {8d831688-c3ef-4247-bdf9-36d95e34ef33}, !- Schedule Type Limits Name
  {dacc263b-6af7-4ffc-b701-cd4d8a987327}; !- Default Day Schedule Name

OS:Schedule:Day,
  {dacc263b-6af7-4ffc-b701-cd4d8a987327}, !- Handle
  cooling setpoint default day,           !- Name
  {8d831688-c3ef-4247-bdf9-36d95e34ef33}, !- Schedule Type Limits Name
  ,                                       !- Interpolate to Timestep
  24,                                     !- Hour 1
  0,                                      !- Minute 1
  0;                                      !- Value Until Time 1

OS:Schedule:Rule,
  {33588fb5-7616-4be8-9705-4c23a862afb4}, !- Handle
  cooling setpoint allday rule,           !- Name
  {32883dfd-54fb-42f2-9572-51bac000ea0e}, !- Schedule Ruleset Name
  0,                                      !- Rule Order
  {63527318-6669-4729-a3e4-c6527eb147ba}, !- Day Schedule Name
  Yes,                                    !- Apply Sunday
  Yes,                                    !- Apply Monday
  Yes,                                    !- Apply Tuesday
  Yes,                                    !- Apply Wednesday
  Yes,                                    !- Apply Thursday
  Yes,                                    !- Apply Friday
  Yes,                                    !- Apply Saturday
  DateRange,                              !- Date Specification Type
  1,                                      !- Start Month
  1,                                      !- Start Day
  12,                                     !- End Month
  31;                                     !- End Day

OS:Schedule:Day,
  {63527318-6669-4729-a3e4-c6527eb147ba}, !- Handle
  cooling setpoint day,                   !- Name
  {8d831688-c3ef-4247-bdf9-36d95e34ef33}, !- Schedule Type Limits Name
  ,                                       !- Interpolate to Timestep
  24,                                     !- Hour 1
  0,                                      !- Minute 1
  25.5555555555556;                       !- Value Until Time 1

OS:ThermostatSetpoint:DualSetpoint,
  {f34084fc-e4eb-405e-9051-26cefebe240a}, !- Handle
  conditioned space temperature setpoint, !- Name
  {24a10fee-763b-4e1b-9074-f060a41a072f}, !- Heating Setpoint Temperature Schedule Name
  {32883dfd-54fb-42f2-9572-51bac000ea0e}, !- Cooling Setpoint Temperature Schedule Name
  0;                                      !- Temperature Difference Between Cutout And Setpoint {deltaC}

OS:ScheduleTypeLimits,
  {8d831688-c3ef-4247-bdf9-36d95e34ef33}, !- Handle
  Temperature,                            !- Name
  ,                                       !- Lower Limit Value
  ,                                       !- Upper Limit Value
  Continuous,                             !- Numeric Type
  Temperature;                            !- Unit Type

OS:Surface,
  {86624afb-cdac-4a5e-b0af-ae5f8702adea}, !- Handle
  Roof1,                                  !- Name
  RoofCeiling,                            !- Surface Type
  {6a0803c5-b15e-4ba0-b7ef-9943031af291}, !- Construction Name
  {4401f04b-e851-445d-91dd-02eddbb5af02}, !- Space Name
  Outdoors,                               !- Outside Boundary Condition
  ,                                       !- Outside Boundary Condition Object
  SunExposed,                             !- Sun Exposure
  WindExposed,                            !- Wind Exposure
  ,                                       !- View Factor to Ground
  ,                                       !- Number of Vertices
  -26.9347048849634, 58.0557891618865, 2.4384, !- X,Y,Z Vertex 1 {m}
  -26.9347048849634, 46.7895631136661, 8.0715130241102, !- X,Y,Z Vertex 2 {m}
  -14.3386812381136, 46.7895631136661, 8.0715130241102, !- X,Y,Z Vertex 3 {m}
  -14.3386812381136, 58.0557891618865, 2.4384; !- X,Y,Z Vertex 4 {m}

OS:AdditionalProperties,
  {c5c54d4d-06c5-494a-80dd-514d4edf9f8a}, !- Handle
  {86624afb-cdac-4a5e-b0af-ae5f8702adea}, !- Object Name
  Length,                                 !- Feature Name 1
  Double,                                 !- Feature Data Type 1
  41.325536899113608,                     !- Feature Value 1
  Width,                                  !- Feature Name 2
  Double,                                 !- Feature Data Type 2
  41.325536899113601,                     !- Feature Value 2
  Azimuth,                                !- Feature Name 3
  Integer,                                !- Feature Data Type 3
  0,                                      !- Feature Value 3
  Tilt,                                   !- Feature Name 4
  Double,                                 !- Feature Data Type 4
  0.5,                                    !- Feature Value 4
  SurfaceType,                            !- Feature Name 5
  String,                                 !- Feature Data Type 5
  Roof;                                   !- Feature Value 5

OS:ThermalZone,
  {b28e75d9-a548-4ac7-8497-c4a0aae61c6a}, !- Handle
  attic - vented,                         !- Name
  1,                                      !- Multiplier
  ,                                       !- Ceiling Height {m}
  356.390921899745,                       !- Volume {m3}
  ,                                       !- Floor Area {m2}
  ,                                       !- Zone Inside Convection Algorithm
  ,                                       !- Zone Outside Convection Algorithm
  ,                                       !- Zone Conditioning Equipment List Name
  {758a57f3-199f-49ce-85e7-8004572fac50}, !- Zone Air Inlet Port List
  {dda830a7-605f-4236-a131-af51cbc7c1ba}, !- Zone Air Exhaust Port List
  {acb3bd6e-4670-46a8-9f4d-456394fa26d9}, !- Zone Air Node Name
  {e36b4998-8289-4f35-abd5-06f69b187a86}, !- Zone Return Air Port List
  ,                                       !- Primary Daylighting Control Name
  ,                                       !- Fraction of Zone Controlled by Primary Daylighting Control
  ,                                       !- Secondary Daylighting Control Name
  ,                                       !- Fraction of Zone Controlled by Secondary Daylighting Control
  ,                                       !- Illuminance Map Name
  ,                                       !- Group Rendering Name
  ,                                       !- Thermostat Name
  No;                                     !- Use Ideal Air Loads

OS:Node,
  {a8bc6221-a291-484c-928a-c383715c7e54}, !- Handle
  Node 2,                                 !- Name
  {acb3bd6e-4670-46a8-9f4d-456394fa26d9}, !- Inlet Port
  ;                                       !- Outlet Port

OS:Connection,
  {acb3bd6e-4670-46a8-9f4d-456394fa26d9}, !- Handle
  {b28e75d9-a548-4ac7-8497-c4a0aae61c6a}, !- Source Object
  11,                                     !- Outlet Port
  {a8bc6221-a291-484c-928a-c383715c7e54}, !- Target Object
  2;                                      !- Inlet Port

OS:PortList,
  {758a57f3-199f-49ce-85e7-8004572fac50}, !- Handle
  {b28e75d9-a548-4ac7-8497-c4a0aae61c6a}; !- HVAC Component

OS:PortList,
  {dda830a7-605f-4236-a131-af51cbc7c1ba}, !- Handle
  {b28e75d9-a548-4ac7-8497-c4a0aae61c6a}; !- HVAC Component

OS:PortList,
  {e36b4998-8289-4f35-abd5-06f69b187a86}, !- Handle
  {b28e75d9-a548-4ac7-8497-c4a0aae61c6a}; !- HVAC Component

OS:Sizing:Zone,
  {2356b39c-7c8a-47e9-8b90-8a057e0ead23}, !- Handle
  {b28e75d9-a548-4ac7-8497-c4a0aae61c6a}, !- Zone or ZoneList Name
  SupplyAirTemperature,                   !- Zone Cooling Design Supply Air Temperature Input Method
  14,                                     !- Zone Cooling Design Supply Air Temperature {C}
  11.11,                                  !- Zone Cooling Design Supply Air Temperature Difference {deltaC}
  SupplyAirTemperature,                   !- Zone Heating Design Supply Air Temperature Input Method
  40,                                     !- Zone Heating Design Supply Air Temperature {C}
  11.11,                                  !- Zone Heating Design Supply Air Temperature Difference {deltaC}
  0.0085,                                 !- Zone Cooling Design Supply Air Humidity Ratio {kg-H2O/kg-air}
  0.008,                                  !- Zone Heating Design Supply Air Humidity Ratio {kg-H2O/kg-air}
  ,                                       !- Zone Heating Sizing Factor
  ,                                       !- Zone Cooling Sizing Factor
  DesignDay,                              !- Cooling Design Air Flow Method
  ,                                       !- Cooling Design Air Flow Rate {m3/s}
  ,                                       !- Cooling Minimum Air Flow per Zone Floor Area {m3/s-m2}
  ,                                       !- Cooling Minimum Air Flow {m3/s}
  ,                                       !- Cooling Minimum Air Flow Fraction
  DesignDay,                              !- Heating Design Air Flow Method
  ,                                       !- Heating Design Air Flow Rate {m3/s}
  ,                                       !- Heating Maximum Air Flow per Zone Floor Area {m3/s-m2}
  ,                                       !- Heating Maximum Air Flow {m3/s}
  ,                                       !- Heating Maximum Air Flow Fraction
  No,                                     !- Account for Dedicated Outdoor Air System
  NeutralSupplyAir,                       !- Dedicated Outdoor Air System Control Strategy
  autosize,                               !- Dedicated Outdoor Air Low Setpoint Temperature for Design {C}
  autosize,                               !- Dedicated Outdoor Air High Setpoint Temperature for Design {C}
  Sensible Load Only No Latent Load,      !- Zone Load Sizing Method
  HumidityRatioDifference,                !- Zone Latent Cooling Design Supply Air Humidity Ratio Input Method
  ,                                       !- Zone Dehumidification Design Supply Air Humidity Ratio {kgWater/kgDryAir}
  0.005,                                  !- Zone Cooling Design Supply Air Humidity Ratio Difference {kgWater/kgDryAir}
  HumidityRatioDifference,                !- Zone Latent Heating Design Supply Air Humidity Ratio Input Method
  ,                                       !- Zone Humidification Design Supply Air Humidity Ratio {kgWater/kgDryAir}
  0.005,                                  !- Zone Humidification Design Supply Air Humidity Ratio Difference {kgWater/kgDryAir}
  ,                                       !- Zone Humidistat Dehumidification Set Point Schedule Name
  ,                                       !- Zone Humidistat Humidification Set Point Schedule Name
  ,                                       !- Design Zone Air Distribution Effectiveness in Cooling Mode
  ,                                       !- Design Zone Air Distribution Effectiveness in Heating Mode
  ,                                       !- Design Zone Secondary Recirculation Fraction {dimensionless}
  ,                                       !- Design Minimum Zone Ventilation Efficiency {dimensionless}
  Coincident;                             !- Sizing Option

OS:ZoneHVAC:EquipmentList,
  {15cdb920-9af5-4650-9efc-44bd5b0bdf37}, !- Handle
  Zone HVAC Equipment List 2,             !- Name
  {b28e75d9-a548-4ac7-8497-c4a0aae61c6a}; !- Thermal Zone

OS:AdditionalProperties,
  {af522e6a-2cb0-41b3-8701-64c4091bc6cb}, !- Handle
  {b28e75d9-a548-4ac7-8497-c4a0aae61c6a}, !- Object Name
  ObjectType,                             !- Feature Name 1
  String,                                 !- Feature Data Type 1
  attic - vented;                         !- Feature Value 1

OS:Space,
  {4401f04b-e851-445d-91dd-02eddbb5af02}, !- Handle
  attic - vented 1,                       !- Name
  ,                                       !- Space Type Name
  ,                                       !- Default Construction Set Name
  ,                                       !- Default Schedule Set Name
  ,                                       !- Direction of Relative North {deg}
  ,                                       !- X Origin {m}
  ,                                       !- Y Origin {m}