
OS:Version,
  {e07fd699-0eac-471a-a5c3-030a5ea1b274}, !- Handle
  3.9.0;                                  !- Version Identifier

OS:SimulationControl,
  {40fef3d4-5bf2-46d4-8e4b-8e2ef6bf129b}, !- Handle
  ,                                       !- Do Zone Sizing Calculation
  ,                                       !- Do System Sizing Calculation
  ,                                       !- Do Plant Sizing Calculation
  No;                                     !- Run Simulation for Sizing Periods

OS:Timestep,
  {2735b352-620b-41d1-9128-6e1bbe6549f0}, !- Handle
  1;                                      !- Number of Timesteps per Hour

OS:ShadowCalculation,
  {67d603e5-dae4-4d10-8655-84159ef1bf26}, !- Handle
  PolygonClipping,                        !- Shading Calculation Method
  ,                                       !- Shading Calculation Update Frequency Method
  20,                                     !- Shading Calculation Update Frequency
  200,                                    !- Maximum Figures in Shadow Overlap Calculations
  ,                                       !- Polygon Clipping Algorithm
  512,                                    !- Pixel Counting Resolution
  ,                                       !- Sky Diffuse Modeling Algorithm
  No,                                     !- Output External Shading Calculation Results
  No,                                     !- Disable Self-Shading Within Shading Zone Groups
  No;                                     !- Disable Self-Shading From Shading Zone Groups to Other Zones

OS:SurfaceConvectionAlgorithm:Outside,
  {e031ea59-8a05-4e86-8003-37f89f20894c}, !- Handle
  DOE-2;                                  !- Algorithm

OS:SurfaceConvectionAlgorithm:Inside,
  {3136e428-5921-483b-bc9b-0e76baf1aad3}, !- Handle
  TARP;                                   !- Algorithm

OS:ZoneCapacitanceMultiplier:ResearchSpecial,
  {6265f81c-7d06-4822-8403-233ed35f1d36}, !- Handle
  7,                                      !- Temperature Capacity Multiplier
  15,                                     !- Humidity Capacity Multiplier
  ;                                       !- Carbon Dioxide Capacity Multiplier

OS:ConvergenceLimits,
  {76eaabcc-aa72-4edd-84f5-6c703de15163}, !- Handle
  0;                                      !- Minimum System Timestep {minutes}

OS:RunPeriod,
  {49da4f20-be0b-4b87-a337-58e01b81ea63}, !- Handle
  Run Period 1,                           !- Name
  1,                                      !- Begin Month
  1,                                      !- Begin Day of Month
  12,                                     !- End Month
  31,                                     !- End Day of Month
  ,                                       !- Use Weather File Holidays and Special Days
  ,                                       !- Use Weather File Daylight Saving Period
  ,                                       !- Apply Weekend Holiday Rule
  ,                                       !- Use Weather File Rain Indicators
  ,                                       !- Use Weather File Snow Indicators
  ;                                       !- Number of Times Runperiod to be Repeated

OS:PerformancePrecisionTradeoffs,
  {c0e61db5-d57c-48f3-a3c6-ab1e83ebb447}, !- Handle
  ,                                       !- Use Coil Direct Solutions
  CarrollMRT;                             !- Zone Radiant Exchange Algorithm

OS:WeatherFile,
  {9a816e03-07a0-4542-8e68-783d5625c833}, !- Handle
  Buffalo Niagara Intl Ap,                !- City
  NY,                                     !- State Province Region
  USA,                                    !- Country
  TMY3,                                   !- Data Source
  725280,                                 !- WMO Number
  42.93,                                  !- Latitude {deg}
  -78.73,                                 !- Longitude {deg}
  -5,                                     !- Time Zone {hr}
  215,                                    !- Elevation {m}
  /Users/nmoore/github/urbanopt-example-geojson-project/example_project/weather/USA_NY_Buffalo-Greater.Buffalo.Intl.AP.725280_TMY3.epw, !- Url
  6B50E0FF,                               !- Checksum
  ,                                       !- Start Date Actual Year
  Sunday;                                 !- Start Day of Week

OS:YearDescription,
  {1656cd0a-4ad0-4d41-b2a7-93695ec6c1d4}, !- Handle
  2007,                                   !- Calendar Year
  ,                                       !- Day of Week for Start Day
  ;                                       !- Is Leap Year

OS:Site,
  {84b00bea-9728-4f50-ae8a-99b92f3bb9d1}, !- Handle
  Buffalo Niagara Intl Ap_NY,             !- Name
  42.93,                                  !- Latitude {deg}
  -78.73,                                 !- Longitude {deg}
  -5,                                     !- Time Zone {hr}
  215,                                    !- Elevation {m}
  Suburbs,                                !- Terrain
  Yes;                                    !- Keep Site Location Information

OS:RunPeriodControl:DaylightSavingTime,
  {b406cedb-f2c9-4c4c-9434-9332f2505442}, !- Handle
  Mar 12,                                 !- Start Date
  Nov 5;                                  !- End Date

OS:Site:GroundTemperature:Shallow,
  {89616ea2-58d2-4889-b7e6-79487860c732}, !- Handle
  4.30207395723828,                       !- January Surface Ground Temperature {C}
  2.29327249652502,                       !- February Surface Ground Temperature {C}
  2.13240047156047,                       !- March Surface Ground Temperature {C}
  3.08567940719286,                       !- April Surface Ground Temperature {C}
  6.91256312497526,                       !- May Surface Ground Temperature {C}
  10.7216195949507,                       !- June Surface Ground Temperature {C}
  14.0238679822574,                       !- July Surface Ground Temperature {C}
  16.1157611184724,                       !- August Surface Ground Temperature {C}
  16.2934789303462,                       !- September Surface Ground Temperature {C}
  14.5920754632847,                       !- October Surface Ground Temperature {C}
  11.374036348653,                        !- November Surface Ground Temperature {C}
  7.68182621661674;                       !- December Surface Ground Temperature {C}

OS:Site:GroundTemperature:Deep,
  {ee2d0c85-9e0e-42f2-a1ab-f34ee347a4a9}, !- Handle
  10,                                     !- January Deep Ground Temperature {C}
  10,                                     !- February Deep Ground Temperature {C}
  10,                                     !- March Deep Ground Temperature {C}
  10,                                     !- April Deep Ground Temperature {C}
  10,                                     !- May Deep Ground Temperature {C}
  10,                                     !- June Deep Ground Temperature {C}
  10,                                     !- July Deep Ground Temperature {C}
  10,                                     !- August Deep Ground Temperature {C}
  10,                                     !- September Deep Ground Temperature {C}
  10,                                     !- October Deep Ground Temperature {C}
  10,                                     !- November Deep Ground Temperature {C}
  10;                                     !- December Deep Ground Temperature {C}

OS:ThermalZone,
  {0fc40590-5ef1-42e3-bdcf-7f9eff66eeae}, !- Handle
  conditioned space,                      !- Name
  1,                                      !- Multiplier
  ,                                       !- Ceiling Height {m}
  692.06373070848,                        !- Volume {m3}
  ,                                       !- Floor Area {m2}
  ,                                       !- Zone Inside Convection Algorithm
  ,                                       !- Zone Outside Convection Algorithm
  ,                                       !- Zone Conditioning Equipment List Name
  {3ddc022f-ef5b-46bc-ae07-db2d1e6b26c4}, !- Zone Air Inlet Port List
  {99fdfbbb-f13c-4ca8-8838-3d36ed0d953f}, !- Zone Air Exhaust Port List
  {7b67349d-fa8a-47b9-99af-d16b2009a749}, !- Zone Air Node Name
  {104f91db-906d-4d1c-a290-2e660837c003}, !- Zone Return Air Port List
  ,                                       !- Primary Daylighting Control Name
  ,                                       !- Fraction of Zone Controlled by Primary Daylighting Control
  ,                                       !- Secondary Daylighting Control Name
  ,                                       !- Fraction of Zone Controlled by Secondary Daylighting Control
  ,                                       !- Illuminance Map Name
  ,                                       !- Group Rendering Name
  {d52e771d-ec64-48e7-8748-4ca20adf36e2}, !- Thermostat Name
  No;                                     !- Use Ideal Air Loads

OS:Node,
  {d649fe1f-eefe-4d5b-af49-67e9281ab045}, !- Handle
  Node 1,                                 !- Name
  {7b67349d-fa8a-47b9-99af-d16b2009a749}, !- Inlet Port
  ;                                       !- Outlet Port

OS:Connection,
  {7b67349d-fa8a-47b9-99af-d16b2009a749}, !- Handle
  {0fc40590-5ef1-42e3-bdcf-7f9eff66eeae}, !- Source Object
  11,                                     !- Outlet Port
  {d649fe1f-eefe-4d5b-af49-67e9281ab045}, !- Target Object
  2;                                      !- Inlet Port

OS:PortList,
  {3ddc022f-ef5b-46bc-ae07-db2d1e6b26c4}, !- Handle
  {0fc40590-5ef1-42e3-bdcf-7f9eff66eeae}, !- HVAC Component
  {8748fdf9-cca9-4bd3-b9b3-7ae3b0163b29}; !- Port 1

OS:PortList,
  {99fdfbbb-f13c-4ca8-8838-3d36ed0d953f}, !- Handle
  {0fc40590-5ef1-42e3-bdcf-7f9eff66eeae}; !- HVAC Component

OS:PortList,
  {104f91db-906d-4d1c-a290-2e660837c003}, !- Handle
  {0fc40590-5ef1-42e3-bdcf-7f9eff66eeae}, !- HVAC Component
  {977406ca-1110-46ac-84c7-24a7fb3f37df}; !- Port 1

OS:Sizing:Zone,
  {03c4809c-11bc-4cb6-99f2-6fef866cba23}, !- Handle
  {0fc40590-5ef1-42e3-bdcf-7f9eff66eeae}, !- Zone or ZoneList Name
  SupplyAirTemperature,                   !- Zone Cooling Design Supply Air Temperature Input Method
  14,                                     !- Zone Cooling Design Supply Air Temperature {C}
  11.11,                                  !- Zone Cooling Design Supply Air Temperature Difference {deltaC}
  SupplyAirTemperature,                   !- Zone Heating Design Supply Air Temperature Input Method
  40,                                     !- Zone Heating Design Supply Air Temperature {C}
  11.11,                                  !- Zone Heating Design Supply Air Temperature Difference {deltaC}
  0.0085,                                 !- Zone Cooling Design Supply Air Humidity Ratio {kg-H2O/kg-air}
  0.008,                                  !- Zone Heating Design Supply Air Humidity Ratio {kg-H2O/kg-air}
  ,                                       !- Zone Heating Sizing Factor
  ,                                       !- Zone Cooling Sizing Factor
  DesignDay,                              !- Cooling Design Air Flow Method
  ,                                       !- Cooling Design Air Flow Rate {m3/s}
  ,                                       !- Cooling Minimum Air Flow per Zone Floor Area {m3/s-m2}
  ,                                       !- Cooling Minimum Air Flow {m3/s}
  ,                                       !- Cooling Minimum Air Flow Fraction
  DesignDay,                              !- Heating Design Air Flow Method
  ,                                       !- Heating Design Air Flow Rate {m3/s}
  ,                                       !- Heating Maximum Air Flow per Zone Floor Area {m3/s-m2}
  ,                                       !- Heating Maximum Air Flow {m3/s}
  ,                                       !- Heating Maximum Air Flow Fraction
  No,                                     !- Account for Dedicated Outdoor Air System
  NeutralSupplyAir,                       !- Dedicated Outdoor Air System Control Strategy
  autosize,                               !- Dedicated Outdoor Air Low Setpoint Temperature for Design {C}
  autosize,                               !- Dedicated Outdoor Air High Setpoint Temperature for Design {C}
  Sensible Load Only No Latent Load,      !- Zone Load Sizing Method
  HumidityRatioDifference,                !- Zone Latent Cooling Design Supply Air Humidity Ratio Input Method
  ,                                       !- Zone Dehumidification Design Supply Air Humidity Ratio {kgWater/kgDryAir}
  0.005,                                  !- Zone Cooling Design Supply Air Humidity Ratio Difference {kgWater/kgDryAir}
  HumidityRatioDifference,                !- Zone Latent Heating Design Supply Air Humidity Ratio Input Method
  ,                                       !- Zone Humidification Design Supply Air Humidity Ratio {kgWater/kgDryAir}
  0.005,                                  !- Zone Humidification Design Supply Air Humidity Ratio Difference {kgWater/kgDryAir}
  ,                                       !- Zone Humidistat Dehumidification Set Point Schedule Name
  ,                                       !- Zone Humidistat Humidification Set Point Schedule Name
  ,                                       !- Design Zone Air Distribution Effectiveness in Cooling Mode
  ,                                       !- Design Zone Air Distribution Effectiveness in Heating Mode
  ,                                       !- Design Zone Secondary Recirculation Fraction {dimensionless}
  ,                                       !- Design Minimum Zone Ventilation Efficiency {dimensionless}
  Coincident;                             !- Sizing Option

OS:ZoneHVAC:EquipmentList,
  {3f5f5a4f-79e0-4f06-8adc-858c6aad9bc7}, !- Handle
  Zone HVAC Equipment List 1,             !- Name
  {0fc40590-5ef1-42e3-bdcf-7f9eff66eeae}, !- Thermal Zone
  ,                                       !- Load Distribution Scheme
  {5e18ea53-6013-4cbb-a64a-cf091b473091}, !- Zone Equipment 1
  1,                                      !- Zone Equipment Cooling Sequence 1
  1,                                      !- Zone Equipment Heating or No-Load Sequence 1
  {287c04ef-452b-4fcf-b810-22e6fe219a9f}, !- Zone Equipment Sequential Cooling Fraction Schedule Name 1
  {18e35910-d27b-422d-8c6b-58cb13a81010}; !- Zone Equipment Sequential Heating Fraction Schedule Name 1

OS:AdditionalProperties,
  {2146a438-64e2-4de3-b772-4a8a9128efb1}, !- Handle
  {0fc40590-5ef1-42e3-bdcf-7f9eff66eeae}, !- Object Name
  ObjectType,                             !- Feature Name 1
  String,                                 !- Feature Data Type 1
  conditioned space;                      !- Feature Value 1

OS:Space,
  {661f96ea-084f-4bcd-bd7d-f36dd1ceaed7}, !- Handle
  conditioned space 1,                    !- Name
  ,                                       !- Space Type Name
  ,                                       !- Default Construction Set Name
  ,                                       !- Default Schedule Set Name
  ,                                       !- Direction of Relative North {deg}
  ,                                       !- X Origin {m}
  ,                                       !- Y Origin {m}
  ,                                       !- Z Origin {m}
  ,                                       !- Building Story Name
  {0fc40590-5ef1-42e3-bdcf-7f9eff66eeae}, !- Thermal Zone Name
  ,                                       !- Part of Total Floor Area
  ,                                       !- Design Specification Outdoor Air Object Name
  ,                                       !- Building Unit Name
  692.06373070848;                        !- Volume {m3}

OS:Schedule:Ruleset,
  {caea4efb-402c-4532-8202-ed095e7d8542}, !- Handle
  heating setpoint,                       !- Name
  {76544e68-55da-4576-b16f-aa01e2c161a6}, !- Schedule Type Limits Name
  {705f7099-7c6e-4121-b6ec-86a549da95b4}; !- Default Day Schedule Name

OS:Schedule:Day,
  {705f7099-7c6e-4121-b6ec-86a549da95b4}, !- Handle
  heating setpoint default day,           !- Name
  {76544e68-55da-4576-b16f-aa01e2c161a6}, !- Schedule Type Limits Name
  ,                                       !- Interpolate to Timestep
  24,                                     !- Hour 1
  0,                                      !- Minute 1
  0;                                      !- Value Until Time 1

OS:Schedule:Rule,
  {100c9a57-519c-43be-97e7-33336be5c3b0}, !- Handle
  heating setpoint allday rule,           !- Name
  {caea4efb-402c-4532-8202-ed095e7d8542}, !- Schedule Ruleset Name
  0,                                      !- Rule Order
  {4c92107c-1cc1-4cca-be74-6415fa06faeb}, !- Day Schedule Name
  Yes,                                    !- Apply Sunday
  Yes,                                    !- Apply Monday
  Yes,                                    !- Apply Tuesday
  Yes,                                    !- Apply Wednesday
  Yes,                                    !- Apply Thursday
  Yes,                                    !- Apply Friday
  Yes,                                    !- Apply Saturday
  DateRange,                              !- Date Specification Type
  1,                                      !- Start Month
  1,                                      !- Start Day
  12,                                     !- End Month
  31;                                     !- End Day

OS:Schedule:Day,
  {4c92107c-1cc1-4cca-be74-6415fa06faeb}, !- Handle
  heating setpoint day,                   !- Name
  {76544e68-55da-4576-b16f-aa01e2c161a6}, !- Schedule Type Limits Name
  ,                                       !- Interpolate to Timestep
  24,                                     !- Hour 1
  0,                                      !- Minute 1
  20;                                     !- Value Until Time 1

OS:Schedule:Ruleset,
  {c241a523-c4ec-4b78-88cd-e7b5b2300705}, !- Handle
  cooling setpoint,                       !- Name
  {76544e68-55da-4576-b16f-aa01e2c161a6}, !- Schedule Type Limits Name
  {1f588b92-b675-4e1a-a525-5620f9556312}; !- Default Day Schedule Name

OS:Schedule:Day,
  {1f588b92-b675-4e1a-a525-5620f9556312}, !- Handle
  cooling setpoint default day,           !- Name
  {76544e68-55da-4576-b16f-aa01e2c161a6}, !- Schedule Type Limits Name
  ,                                       !- Interpolate to Timestep
  24,                                     !- Hour 1
  0,                                      !- Minute 1
  0;                                      !- Value Until Time 1

OS:Schedule:Rule,
  {ac48f212-35aa-46ba-81f0-7a2dad784ff4}, !- Handle
  cooling setpoint allday rule,           !- Name
  {c241a523-c4ec-4b78-88cd-e7b5b2300705}, !- Schedule Ruleset Name
  0,                                      !- Rule Order
  {5a7f4d0a-e286-408a-96b5-5350d0f5fe87}, !- Day Schedule Name
  Yes,                                    !- Apply Sunday
  Yes,                                    !- Apply Monday
  Yes,                                    !- Apply Tuesday
  Yes,                                    !- Apply Wednesday
  Yes,                                    !- Apply Thursday
  Yes,                                    !- Apply Friday
  Yes,                                    !- Apply Saturday
  DateRange,                              !- Date Specification Type
  1,                                      !- Start Month
  1,                                      !- Start Day
  12,                                     !- End Month
  31;                                     !- End Day

OS:Schedule:Day,
  {5a7f4d0a-e286-408a-96b5-5350d0f5fe87}, !- Handle
  cooling setpoint day,                   !- Name
  {76544e68-55da-4576-b16f-aa01e2c161a6}, !- Schedule Type Limits Name
  ,                                       !- Interpolate to Timestep
  24,                                     !- Hour 1
  0,                                      !- Minute 1
  25.5555555555556;                       !- Value Until Time 1

OS:ThermostatSetpoint:DualSetpoint,
  {d52e771d-ec64-48e7-8748-4ca20adf36e2}, !- Handle
  conditioned space temperature setpoint, !- Name
  {caea4efb-402c-4532-8202-ed095e7d8542}, !- Heating Setpoint Temperature Schedule Name
  {c241a523-c4ec-4b78-88cd-e7b5b2300705}, !- Cooling Setpoint Temperature Schedule Name
  0;                                      !- Temperature Difference Between Cutout And Setpoint {deltaC}

OS:ScheduleTypeLimits,
  {76544e68-55da-4576-b16f-aa01e2c161a6}, !- Handle
  Temperature,                            !- Name
  ,                                       !- Lower Limit Value
  ,                                       !- Upper Limit Value
  Continuous,                             !- Numeric Type
  Temperature;                            !- Unit Type

OS:Surface,
  {9199b02f-bc24-4470-a79f-18da679a5bc5}, !- Handle
  Roof1,                                  !- Name
  RoofCeiling,                            !- Surface Type
  {f3bb7d2f-3f7f-4b69-9612-58f0b05806a6}, !- Construction Name
  {9740c308-15ab-4910-b61d-155312c0a196}, !- Space Name
  Outdoors,                               !- Outside Boundary Condition
  ,                                       !- Outside Boundary Condition Object
  SunExposed,                             !- Sun Exposure
  WindExposed,                            !- Wind Exposure
  ,                                       !- View Factor to Ground
  ,                                       !- Number of Vertices
  -26.9347048849634, 58.0557891618865, 2.4384, !- X,Y,Z Vertex 1 {m}
  -26.9347048849634, 46.7895631136661, 8.0715130241102, !- X,Y,Z Vertex 2 {m}
  -14.3386812381136, 46.7895631136661, 8.0715130241102, !- X,Y,Z Vertex 3 {m}
  -14.3386812381136, 58.0557891618865, 2.4384; !- X,Y,Z Vertex 4 {m}

OS:AdditionalProperties,
  {f6b65872-5d0c-4f48-ba36-0116650ec29f}, !- Handle
  {9199b02f-bc24-4470-a79f-18da679a5bc5}, !- Object Name
  Length,                                 !- Feature Name 1
  Double,                                 !- Feature Data Type 1
  41.325536899113608,                     !- Feature Value 1
  Width,                                  !- Feature Name 2
  Double,                                 !- Feature Data Type 2
  41.325536899113601,                     !- Feature Value 2
  Azimuth,                                !- Feature Name 3
  Integer,                                !- Feature Data Type 3
  0,                                      !- Feature Value 3
  Tilt,                                   !- Feature Name 4
  Double,                                 !- Feature Data Type 4
  0.5,                                    !- Feature Value 4
  SurfaceType,                            !- Feature Name 5
  String,                                 !- Feature Data Type 5
  Roof;                                   !- Feature Value 5

OS:ThermalZone,
  {fdd90814-68e5-4ef8-ab1e-4847772f73f5}, !- Handle
  attic - vented,                         !- Name
  1,                                      !- Multiplier
  ,                                       !- Ceiling Height {m}
  356.389957095237,                       !- Volume {m3}
  ,                                       !- Floor Area {m2}
  ,                                       !- Zone Inside Convection Algorithm
  ,                                       !- Zone Outside Convection Algorithm
  ,                                       !- Zone Conditioning Equipment List Name
  {c81edb5d-4bea-4786-8fbb-94e45be29aac}, !- Zone Air Inlet Port List
  {0b681a98-fcdc-4823-b4fd-df0d1266aea7}, !- Zone Air Exhaust Port List
  {f2aac096-923a-4d3c-9668-be1c9d8db9d8}, !- Zone Air Node Name
  {75722c79-8a3f-49db-a711-32baf5067d5d}, !- Zone Return Air Port List
  ,                                       !- Primary Daylighting Control Name
  ,                                       !- Fraction of Zone Controlled by Primary Daylighting Control
  ,                                       !- Secondary Daylighting Control Name
  ,                                       !- Fraction of Zone Controlled by Secondary Daylighting Control
  ,                                       !- Illuminance Map Name
  ,                                       !- Group Rendering Name
  ,                                       !- Thermostat Name
  No;                                     !- Use Ideal Air Loads

OS:Node,
  {5cc83394-f830-476b-858f-abe41465559e}, !- Handle
  Node 2,                                 !- Name
  {f2aac096-923a-4d3c-9668-be1c9d8db9d8}, !- Inlet Port
  ;                                       !- Outlet Port

OS:Connection,
  {f2aac096-923a-4d3c-9668-be1c9d8db9d8}, !- Handle
  {fdd90814-68e5-4ef8-ab1e-4847772f73f5}, !- Source Object
  11,                                     !- Outlet Port
  {5cc83394-f830-476b-858f-abe41465559e}, !- Target Object
  2;                                      !- Inlet Port

OS:PortList,
  {c81edb5d-4bea-4786-8fbb-94e45be29aac}, !- Handle
  {fdd90814-68e5-4ef8-ab1e-4847772f73f5}; !- HVAC Component

OS:PortList,
  {0b681a98-fcdc-4823-b4fd-df0d1266aea7}, !- Handle
  {fdd90814-68e5-4ef8-ab1e-4847772f73f5}; !- HVAC Component

OS:PortList,
  {75722c79-8a3f-49db-a711-32baf5067d5d}, !- Handle
  {fdd90814-68e5-4ef8-ab1e-4847772f73f5}; !- HVAC Component

OS:Sizing:Zone,
  {733450c1-18c4-41fa-88a7-ac81424ef5ad}, !- Handle
  {fdd90814-68e5-4ef8-ab1e-4847772f73f5}, !- Zone or ZoneList Name
  SupplyAirTemperature,                   !- Zone Cooling Design Supply Air Temperature Input Method
  14,                                     !- Zone Cooling Design Supply Air Temperature {C}
  11.11,                                  !- Zone Cooling Design Supply Air Temperature Difference {deltaC}
  SupplyAirTemperature,                   !- Zone Heating Design Supply Air Temperature Input Method
  40,                                     !- Zone Heating Design Supply Air Temperature {C}
  11.11,                                  !- Zone Heating Design Supply Air Temperature Difference {deltaC}
  0.0085,                                 !- Zone Cooling Design Supply Air Humidity Ratio {kg-H2O/kg-air}
  0.008,                                  !- Zone Heating Design Supply Air Humidity Ratio {kg-H2O/kg-air}
  ,                                       !- Zone Heating Sizing Factor
  ,                                       !- Zone Cooling Sizing Factor
  DesignDay,                              !- Cooling Design Air Flow Method
  ,                                       !- Cooling Design Air Flow Rate {m3/s}
  ,                                       !- Cooling Minimum Air Flow per Zone Floor Area {m3/s-m2}
  ,                                       !- Cooling Minimum Air Flow {m3/s}
  ,                                       !- Cooling Minimum Air Flow Fraction
  DesignDay,                              !- Heating Design Air Flow Method
  ,                                       !- Heating Design Air Flow Rate {m3/s}
  ,                                       !- Heating Maximum Air Flow per Zone Floor Area {m3/s-m2}
  ,                                       !- Heating Maximum Air Flow {m3/s}
  ,                                       !- Heating Maximum Air Flow Fraction
  No,                                     !- Account for Dedicated Outdoor Air System
  NeutralSupplyAir,                       !- Dedicated Outdoor Air System Control Strategy
  autosize,                               !- Dedicated Outdoor Air Low Setpoint Temperature for Design {C}
  autosize,                               !- Dedicated Outdoor Air High Setpoint Temperature for Design {C}
  Sensible Load Only No Latent Load,      !- Zone Load Sizing Method
  HumidityRatioDifference,                !- Zone Latent Cooling Design Supply Air Humidity Ratio Input Method
  ,                                       !- Zone Dehumidification Design Supply Air Humidity Ratio {kgWater/kgDryAir}
  0.005,                                  !- Zone Cooling Design Supply Air Humidity Ratio Difference {kgWater/kgDryAir}
  HumidityRatioDifference,                !- Zone Latent Heating Design Supply Air Humidity Ratio Input Method
  ,                                       !- Zone Humidification Design Supply Air Humidity Ratio {kgWater/kgDryAir}
  0.005,                                  !- Zone Humidification Design Supply Air Humidity Ratio Difference {kgWater/kgDryAir}
  ,                                       !- Zone Humidistat Dehumidification Set Point Schedule Name
  ,                                       !- Zone Humidistat Humidification Set Point Schedule Name
  ,                                       !- Design Zone Air Distribution Effectiveness in Cooling Mode
  ,                                       !- Design Zone Air Distribution Effectiveness in Heating Mode
  ,                                       !- Design Zone Secondary Recirculation Fraction {dimensionless}
  ,                                       !- Design Minimum Zone Ventilation Efficiency {dimensionless}
  Coincident;                             !- Sizing Option

OS:ZoneHVAC:EquipmentList,
  {6bf32b6b-b75e-437e-b316-d4d3653a58e6}, !- Handle
  Zone HVAC Equipment List 2,             !- Name
  {fdd90814-68e5-4ef8-ab1e-4847772f73f5}; !- Thermal Zone

OS:AdditionalProperties,
  {3cc52a5a-6f2b-4833-8d1b-2b12fac7282c}, !- Handle
  {fdd90814-68e5-4ef8-ab1e-4847772f73f5}, !- Object Name
  ObjectType,                             !- Feature Name 1
  String,                                 !- Feature Data Type 1
  attic - vented;                         !- Feature Value 1

OS:Space,
  {9740c308-15ab-4910-b61d-155312c0a196}, !- Handle
  attic - vented 1,                       !- Name
  ,                                       !- Space Type Name
  ,                                       !- Default Construction Set Name
  ,                                       !- Default Schedule Set Name
  ,                                       !- Direction of Relative North {deg}
  ,                                       !- X Origin {m}
  ,                                       !- Y Origin {m}