
OS:Version,
  {908afecb-444c-42ed-b3ef-ec30f748f3b3}, !- Handle
  3.10.0;                                 !- Version Identifier

OS:SimulationControl,
  {0039d288-77f1-46cd-b321-3b69ac009535}, !- Handle
  ,                                       !- Do Zone Sizing Calculation
  ,                                       !- Do System Sizing Calculation
  ,                                       !- Do Plant Sizing Calculation
  No;                                     !- Run Simulation for Sizing Periods

OS:Timestep,
  {be3a0327-2078-40db-b25a-ec12d0d140c5}, !- Handle
  1;                                      !- Number of Timesteps per Hour

OS:ShadowCalculation,
  {d905f297-9e02-4e01-bbff-b3e554588473}, !- Handle
  PolygonClipping,                        !- Shading Calculation Method
  ,                                       !- Shading Calculation Update Frequency Method
  20,                                     !- Shading Calculation Update Frequency
  200,                                    !- Maximum Figures in Shadow Overlap Calculations
  ,                                       !- Polygon Clipping Algorithm
  512,                                    !- Pixel Counting Resolution
  ,                                       !- Sky Diffuse Modeling Algorithm
  No,                                     !- Output External Shading Calculation Results
  No,                                     !- Disable Self-Shading Within Shading Zone Groups
  No;                                     !- Disable Self-Shading From Shading Zone Groups to Other Zones

OS:SurfaceConvectionAlgorithm:Outside,
  {e5010f9e-3180-4f16-b7f7-4d49f317d947}, !- Handle
  DOE-2;                                  !- Algorithm

OS:SurfaceConvectionAlgorithm:Inside,
  {113a61bc-6a51-480a-9fe9-fb0478545cce}, !- Handle
  TARP;                                   !- Algorithm

OS:ZoneCapacitanceMultiplier:ResearchSpecial,
  {054f1147-a3b3-409e-ab25-83ff3d58085b}, !- Handle
  7,                                      !- Temperature Capacity Multiplier
  15,                                     !- Humidity Capacity Multiplier
  ;                                       !- Carbon Dioxide Capacity Multiplier

OS:ConvergenceLimits,
  {bf07d161-1c00-4d2e-b54f-73a017642195}, !- Handle
  0;                                      !- Minimum System Timestep {minutes}

OS:RunPeriod,
  {22961b57-55c7-4788-8ead-edc8675a1b5d}, !- Handle
  Run Period 1,                           !- Name
  1,                                      !- Begin Month
  1,                                      !- Begin Day of Month
  12,                                     !- End Month
  31,                                     !- End Day of Month
  ,                                       !- Use Weather File Holidays and Special Days
  ,                                       !- Use Weather File Daylight Saving Period
  ,                                       !- Apply Weekend Holiday Rule
  ,                                       !- Use Weather File Rain Indicators
  ,                                       !- Use Weather File Snow Indicators
  ;                                       !- Number of Times Runperiod to be Repeated

OS:PerformancePrecisionTradeoffs,
  {5d4153ef-f112-4e93-8bb4-7adcea0cfe97}, !- Handle
  ,                                       !- Use Coil Direct Solutions
  CarrollMRT;                             !- Zone Radiant Exchange Algorithm

OS:WeatherFile,
  {7d0db7a3-a056-4e12-a916-88c68081ebf7}, !- Handle
  Buffalo Niagara Intl Ap,                !- City
  NY,                                     !- State Province Region
  USA,                                    !- Country
  TMY3,                                   !- Data Source
  725280,                                 !- WMO Number
  42.93,                                  !- Latitude {deg}
  -78.73,                                 !- Longitude {deg}
  -5,                                     !- Time Zone {hr}
  215,                                    !- Elevation {m}
  /Users/nmoore/github/urbanopt-example-geojson-project/example_project/weather/USA_NY_Buffalo-Greater.Buffalo.Intl.AP.725280_TMY3.epw, !- Url
  6B50E0FF,                               !- Checksum
  ,                                       !- Start Date Actual Year
  Sunday;                                 !- Start Day of Week

OS:YearDescription,
  {b387c566-69a6-4a02-b6d9-7c9d73a7cc7f}, !- Handle
  2007,                                   !- Calendar Year
  ,                                       !- Day of Week for Start Day
  ;                                       !- Is Leap Year

OS:Site,
  {34154c9b-0285-4d4b-9d14-9827c8d784cb}, !- Handle
  Buffalo Niagara Intl Ap_NY,             !- Name
  42.93,                                  !- Latitude {deg}
  -78.73,                                 !- Longitude {deg}
  -5,                                     !- Time Zone {hr}
  215,                                    !- Elevation {m}
  Suburbs,                                !- Terrain
  Yes;                                    !- Keep Site Location Information

OS:RunPeriodControl:DaylightSavingTime,
  {b5c74d0b-ec90-4112-bc8c-d8773f177e43}, !- Handle
  Mar 12,                                 !- Start Date
  Nov 5;                                  !- End Date

OS:Site:GroundTemperature:Shallow,
  {f58cc78b-ee8d-4285-9271-2a3bfecafd24}, !- Handle
  4.30207395723828,                       !- January Surface Ground Temperature {C}
  2.29327249652502,                       !- February Surface Ground Temperature {C}
  2.13240047156047,                       !- March Surface Ground Temperature {C}
  3.08567940719286,                       !- April Surface Ground Temperature {C}
  6.91256312497526,                       !- May Surface Ground Temperature {C}
  10.7216195949507,                       !- June Surface Ground Temperature {C}
  14.0238679822574,                       !- July Surface Ground Temperature {C}
  16.1157611184724,                       !- August Surface Ground Temperature {C}
  16.2934789303462,                       !- September Surface Ground Temperature {C}
  14.5920754632847,                       !- October Surface Ground Temperature {C}
  11.374036348653,                        !- November Surface Ground Temperature {C}
  7.68182621661674;                       !- December Surface Ground Temperature {C}

OS:ThermalZone,
  {1c31414e-e041-4e3b-b160-618b50ad8cfa}, !- Handle
  conditioned space,                      !- Name
  1,                                      !- Multiplier
  ,                                       !- Ceiling Height {m}
  692.06373070848,                        !- Volume {m3}
  ,                                       !- Floor Area {m2}
  ,                                       !- Zone Inside Convection Algorithm
  ,                                       !- Zone Outside Convection Algorithm
  ,                                       !- Zone Conditioning Equipment List Name
  {ac65ce32-ff02-48d8-a76b-1d8ad2fa0d38}, !- Zone Air Inlet Port List
  {e1f6abc7-5a24-46f4-b2a3-0c8c1b77f718}, !- Zone Air Exhaust Port List
  {77db763f-ee89-48f5-9a31-7cbe1a1df687}, !- Zone Air Node Name
  {0fa7bbfa-14c7-4e8c-8769-522e69b1d0c9}, !- Zone Return Air Port List
  ,                                       !- Primary Daylighting Control Name
  ,                                       !- Fraction of Zone Controlled by Primary Daylighting Control
  ,                                       !- Secondary Daylighting Control Name
  ,                                       !- Fraction of Zone Controlled by Secondary Daylighting Control
  ,                                       !- Illuminance Map Name
  ,                                       !- Group Rendering Name
  {ce9b6207-af7f-485b-96b5-381780158a8c}, !- Thermostat Name
  No;                                     !- Use Ideal Air Loads

OS:Node,
  {ac24e4db-5a1c-45bb-ba2a-db99769b85eb}, !- Handle
  Node 1,                                 !- Name
  {77db763f-ee89-48f5-9a31-7cbe1a1df687}, !- Inlet Port
  ;                                       !- Outlet Port

OS:Connection,
  {77db763f-ee89-48f5-9a31-7cbe1a1df687}, !- Handle
  {1c31414e-e041-4e3b-b160-618b50ad8cfa}, !- Source Object
  11,                                     !- Outlet Port
  {ac24e4db-5a1c-45bb-ba2a-db99769b85eb}, !- Target Object
  2;                                      !- Inlet Port

OS:PortList,
  {ac65ce32-ff02-48d8-a76b-1d8ad2fa0d38}, !- Handle
  {1c31414e-e041-4e3b-b160-618b50ad8cfa}, !- HVAC Component
  {41f70e0e-bfc0-47d4-8674-fd5b56527e1a}; !- Port 1

OS:PortList,
  {e1f6abc7-5a24-46f4-b2a3-0c8c1b77f718}, !- Handle
  {1c31414e-e041-4e3b-b160-618b50ad8cfa}; !- HVAC Component

OS:PortList,
  {0fa7bbfa-14c7-4e8c-8769-522e69b1d0c9}, !- Handle
  {1c31414e-e041-4e3b-b160-618b50ad8cfa}, !- HVAC Component
  {df6b204b-5815-4cc8-86f3-a9ae4d13b48b}; !- Port 1

OS:Sizing:Zone,
  {abbe55a3-58ef-408f-a858-45080530f533}, !- Handle
  {1c31414e-e041-4e3b-b160-618b50ad8cfa}, !- Zone or ZoneList Name
  SupplyAirTemperature,                   !- Zone Cooling Design Supply Air Temperature Input Method
  14,                                     !- Zone Cooling Design Supply Air Temperature {C}
  11.11,                                  !- Zone Cooling Design Supply Air Temperature Difference {deltaC}
  SupplyAirTemperature,                   !- Zone Heating Design Supply Air Temperature Input Method
  40,                                     !- Zone Heating Design Supply Air Temperature {C}
  11.11,                                  !- Zone Heating Design Supply Air Temperature Difference {deltaC}
  0.0085,                                 !- Zone Cooling Design Supply Air Humidity Ratio {kg-H2O/kg-air}
  0.008,                                  !- Zone Heating Design Supply Air Humidity Ratio {kg-H2O/kg-air}
  ,                                       !- Zone Heating Sizing Factor
  ,                                       !- Zone Cooling Sizing Factor
  DesignDay,                              !- Cooling Design Air Flow Method
  ,                                       !- Cooling Design Air Flow Rate {m3/s}
  ,                                       !- Cooling Minimum Air Flow per Zone Floor Area {m3/s-m2}
  ,                                       !- Cooling Minimum Air Flow {m3/s}
  ,                                       !- Cooling Minimum Air Flow Fraction
  DesignDay,                              !- Heating Design Air Flow Method
  ,                                       !- Heating Design Air Flow Rate {m3/s}
  ,                                       !- Heating Maximum Air Flow per Zone Floor Area {m3/s-m2}
  ,                                       !- Heating Maximum Air Flow {m3/s}
  ,                                       !- Heating Maximum Air Flow Fraction
  No,                                     !- Account for Dedicated Outdoor Air System
  NeutralSupplyAir,                       !- Dedicated Outdoor Air System Control Strategy
  autosize,                               !- Dedicated Outdoor Air Low Setpoint Temperature for Design {C}
  autosize,                               !- Dedicated Outdoor Air High Setpoint Temperature for Design {C}
  Sensible Load Only No Latent Load,      !- Zone Load Sizing Method
  HumidityRatioDifference,                !- Zone Latent Cooling Design Supply Air Humidity Ratio Input Method
  ,                                       !- Zone Dehumidification Design Supply Air Humidity Ratio {kgWater/kgDryAir}
  0.005,                                  !- Zone Cooling Design Supply Air Humidity Ratio Difference {kgWater/kgDryAir}
  HumidityRatioDifference,                !- Zone Latent Heating Design Supply Air Humidity Ratio Input Method
  ,                                       !- Zone Humidification Design Supply Air Humidity Ratio {kgWater/kgDryAir}
  0.005,                                  !- Zone Humidification Design Supply Air Humidity Ratio Difference {kgWater/kgDryAir}
  ,                                       !- Zone Humidistat Dehumidification Set Point Schedule Name
  ,                                       !- Zone Humidistat Humidification Set Point Schedule Name
  ,                                       !- Design Zone Air Distribution Effectiveness in Cooling Mode
  ,                                       !- Design Zone Air Distribution Effectiveness in Heating Mode
  ,                                       !- Design Zone Secondary Recirculation Fraction {dimensionless}
  ,                                       !- Design Minimum Zone Ventilation Efficiency {dimensionless}
  Coincident;                             !- Sizing Option

OS:ZoneHVAC:EquipmentList,
  {09280d49-7e96-431e-bdae-cd4b0470a9eb}, !- Handle
  Zone HVAC Equipment List 1,             !- Name
  {1c31414e-e041-4e3b-b160-618b50ad8cfa}, !- Thermal Zone
  ,                                       !- Load Distribution Scheme
  {8d6de2e3-5b6c-4eac-ba53-51a4f00c70bc}, !- Zone Equipment 1
  1,                                      !- Zone Equipment Cooling Sequence 1
  1,                                      !- Zone Equipment Heating or No-Load Sequence 1
  {6ec580a2-1508-48c9-8780-1958727babf8}, !- Zone Equipment Sequential Cooling Fraction Schedule Name 1
  {2c1d6986-ed31-4975-ab4c-060c02934014}; !- Zone Equipment Sequential Heating Fraction Schedule Name 1

OS:AdditionalProperties,
  {04377470-21d2-4bc9-be79-9a71249e81e6}, !- Handle
  {1c31414e-e041-4e3b-b160-618b50ad8cfa}, !- Object Name
  ObjectType,                             !- Feature Name 1
  String,                                 !- Feature Data Type 1
  conditioned space;                      !- Feature Value 1

OS:Space,
  {6bb2921b-8b64-445b-a570-6307b6159fec}, !- Handle
  conditioned space 1,                    !- Name
  ,                                       !- Space Type Name
  ,                                       !- Default Construction Set Name
  ,                                       !- Default Schedule Set Name
  ,                                       !- Direction of Relative North {deg}
  ,                                       !- X Origin {m}
  ,                                       !- Y Origin {m}
  ,                                       !- Z Origin {m}
  ,                                       !- Building Story Name
  {1c31414e-e041-4e3b-b160-618b50ad8cfa}, !- Thermal Zone Name
  ,                                       !- Part of Total Floor Area
  ,                                       !- Design Specification Outdoor Air Object Name
  ,                                       !- Building Unit Name
  692.06373070848;                        !- Volume {m3}

OS:Schedule:Ruleset,
  {bc31c2c6-c193-450c-80f5-049996687db1}, !- Handle
  heating setpoint,                       !- Name
  {4da4d7de-3dd2-471b-a1c3-0e5028b67b71}, !- Schedule Type Limits Name
  {449ed34d-5070-4c1b-9bab-204cf0fb55a2}; !- Default Day Schedule Name

OS:Schedule:Day,
  {449ed34d-5070-4c1b-9bab-204cf0fb55a2}, !- Handle
  heating setpoint default day,           !- Name
  {4da4d7de-3dd2-471b-a1c3-0e5028b67b71}, !- Schedule Type Limits Name
  ,                                       !- Interpolate to Timestep
  24,                                     !- Hour 1
  0,                                      !- Minute 1
  0;                                      !- Value Until Time 1

OS:Schedule:Rule,
  {7a4b12c2-da82-4439-9f09-ba6ebf184013}, !- Handle
  heating setpoint allday rule,           !- Name
  {bc31c2c6-c193-450c-80f5-049996687db1}, !- Schedule Ruleset Name
  0,                                      !- Rule Order
  {1162e997-d083-4cc0-8fa9-2a6583e17813}, !- Day Schedule Name
  Yes,                                    !- Apply Sunday
  Yes,                                    !- Apply Monday
  Yes,                                    !- Apply Tuesday
  Yes,                                    !- Apply Wednesday
  Yes,                                    !- Apply Thursday
  Yes,                                    !- Apply Friday
  Yes,                                    !- Apply Saturday
  DateRange,                              !- Date Specification Type
  1,                                      !- Start Month
  1,                                      !- Start Day
  12,                                     !- End Month
  31;                                     !- End Day

OS:Schedule:Day,
  {1162e997-d083-4cc0-8fa9-2a6583e17813}, !- Handle
  heating setpoint day,                   !- Name
  {4da4d7de-3dd2-471b-a1c3-0e5028b67b71}, !- Schedule Type Limits Name
  ,                                       !- Interpolate to Timestep
  24,                                     !- Hour 1
  0,                                      !- Minute 1
  20;                                     !- Value Until Time 1

OS:Schedule:Ruleset,
  {741d48e0-345f-43f9-bb72-bf265fdb3699}, !- Handle
  cooling setpoint,                       !- Name
  {4da4d7de-3dd2-471b-a1c3-0e5028b67b71}, !- Schedule Type Limits Name
  {216ebd18-9ea4-4d39-a917-a79736853a36}; !- Default Day Schedule Name

OS:Schedule:Day,
  {216ebd18-9ea4-4d39-a917-a79736853a36}, !- Handle
  cooling setpoint default day,           !- Name
  {4da4d7de-3dd2-471b-a1c3-0e5028b67b71}, !- Schedule Type Limits Name
  ,                                       !- Interpolate to Timestep
  24,                                     !- Hour 1
  0,                                      !- Minute 1
  0;                                      !- Value Until Time 1

OS:Schedule:Rule,
  {109fd898-6605-4f46-b714-d510c5384bd8}, !- Handle
  cooling setpoint allday rule,           !- Name
  {741d48e0-345f-43f9-bb72-bf265fdb3699}, !- Schedule Ruleset Name
  0,                                      !- Rule Order
  {b96191bb-33bd-491d-a222-088d8c28e67f}, !- Day Schedule Name
  Yes,                                    !- Apply Sunday
  Yes,                                    !- Apply Monday
  Yes,                                    !- Apply Tuesday
  Yes,                                    !- Apply Wednesday
  Yes,                                    !- Apply Thursday
  Yes,                                    !- Apply Friday
  Yes,                                    !- Apply Saturday
  DateRange,                              !- Date Specification Type
  1,                                      !- Start Month
  1,                                      !- Start Day
  12,                                     !- End Month
  31;                                     !- End Day

OS:Schedule:Day,
  {b96191bb-33bd-491d-a222-088d8c28e67f}, !- Handle
  cooling setpoint day,                   !- Name
  {4da4d7de-3dd2-471b-a1c3-0e5028b67b71}, !- Schedule Type Limits Name
  ,                                       !- Interpolate to Timestep
  24,                                     !- Hour 1
  0,                                      !- Minute 1
  25.5555555555556;                       !- Value Until Time 1

OS:ThermostatSetpoint:DualSetpoint,
  {ce9b6207-af7f-485b-96b5-381780158a8c}, !- Handle
  conditioned space temperature setpoint, !- Name
  {bc31c2c6-c193-450c-80f5-049996687db1}, !- Heating Setpoint Temperature Schedule Name
  {741d48e0-345f-43f9-bb72-bf265fdb3699}, !- Cooling Setpoint Temperature Schedule Name
  0;                                      !- Temperature Difference Between Cutout And Setpoint {deltaC}

OS:ScheduleTypeLimits,
  {4da4d7de-3dd2-471b-a1c3-0e5028b67b71}, !- Handle
  Temperature,                            !- Name
  ,                                       !- Lower Limit Value
  ,                                       !- Upper Limit Value
  Continuous,                             !- Numeric Type
  Temperature;                            !- Unit Type

OS:Surface,
  {8f1b3112-dd53-4fa6-b742-75b399b2eb52}, !- Handle
  Roof1,                                  !- Name
  RoofCeiling,                            !- Surface Type
  {df7cae94-fe5d-4659-9c37-6ea7cceab80d}, !- Construction Name
  {14c98eef-7ad9-4fb1-881c-17a1aa8b40bf}, !- Space Name
  Outdoors,                               !- Outside Boundary Condition
  ,                                       !- Outside Boundary Condition Object
  SunExposed,                             !- Sun Exposure
  WindExposed,                            !- Wind Exposure
  ,                                       !- View Factor to Ground
  ,                                       !- Number of Vertices
  -26.9347048849634, 58.0557891618865, 2.4384, !- X,Y,Z Vertex 1 {m}
  -26.9347048849634, 46.7895631136661, 8.0715130241102, !- X,Y,Z Vertex 2 {m}
  -14.3386812381136, 46.7895631136661, 8.0715130241102, !- X,Y,Z Vertex 3 {m}
  -14.3386812381136, 58.0557891618865, 2.4384; !- X,Y,Z Vertex 4 {m}

OS:AdditionalProperties,
  {e99dc344-8158-47c2-b0bb-b0a6c2c1a34b}, !- Handle
  {8f1b3112-dd53-4fa6-b742-75b399b2eb52}, !- Object Name
  Length,                                 !- Feature Name 1
  Double,                                 !- Feature Data Type 1
  41.325536899113608,                     !- Feature Value 1
  Width,                                  !- Feature Name 2
  Double,                                 !- Feature Data Type 2
  41.325536899113601,                     !- Feature Value 2
  Azimuth,                                !- Feature Name 3
  Integer,                                !- Feature Data Type 3
  0,                                      !- Feature Value 3
  Tilt,                                   !- Feature Name 4
  Double,                                 !- Feature Data Type 4
  0.5,                                    !- Feature Value 4
  SurfaceType,                            !- Feature Name 5
  String,                                 !- Feature Data Type 5
  Roof;                                   !- Feature Value 5

OS:ThermalZone,
  {6a67f473-8e07-446d-9759-aea53e690a1f}, !- Handle
  attic - vented,                         !- Name
  1,                                      !- Multiplier
  ,                                       !- Ceiling Height {m}
  356.390921899745,                       !- Volume {m3}
  ,                                       !- Floor Area {m2}
  ,                                       !- Zone Inside Convection Algorithm
  ,                                       !- Zone Outside Convection Algorithm
  ,                                       !- Zone Conditioning Equipment List Name
  {1371d99f-855b-488a-bfbe-6f682df56931}, !- Zone Air Inlet Port List
  {24aed395-2f07-4ddc-bbf6-b95dcf67df7c}, !- Zone Air Exhaust Port List
  {792c3245-da3e-4333-b837-b9e45495865c}, !- Zone Air Node Name
  {0354ab59-9356-4ae2-80b9-eb9b2075aea8}, !- Zone Return Air Port List
  ,                                       !- Primary Daylighting Control Name
  ,                                       !- Fraction of Zone Controlled by Primary Daylighting Control
  ,                                       !- Secondary Daylighting Control Name
  ,                                       !- Fraction of Zone Controlled by Secondary Daylighting Control
  ,                                       !- Illuminance Map Name
  ,                                       !- Group Rendering Name
  ,                                       !- Thermostat Name
  No;                                     !- Use Ideal Air Loads

OS:Node,
  {74f957b3-66a3-412a-8b08-41e5564ad8be}, !- Handle
  Node 2,                                 !- Name
  {792c3245-da3e-4333-b837-b9e45495865c}, !- Inlet Port
  ;                                       !- Outlet Port

OS:Connection,
  {792c3245-da3e-4333-b837-b9e45495865c}, !- Handle
  {6a67f473-8e07-446d-9759-aea53e690a1f}, !- Source Object
  11,                                     !- Outlet Port
  {74f957b3-66a3-412a-8b08-41e5564ad8be}, !- Target Object
  2;                                      !- Inlet Port

OS:PortList,
  {1371d99f-855b-488a-bfbe-6f682df56931}, !- Handle
  {6a67f473-8e07-446d-9759-aea53e690a1f}; !- HVAC Component

OS:PortList,
  {24aed395-2f07-4ddc-bbf6-b95dcf67df7c}, !- Handle
  {6a67f473-8e07-446d-9759-aea53e690a1f}; !- HVAC Component

OS:PortList,
  {0354ab59-9356-4ae2-80b9-eb9b2075aea8}, !- Handle
  {6a67f473-8e07-446d-9759-aea53e690a1f}; !- HVAC Component

OS:Sizing:Zone,
  {09b439d9-f77b-420e-b28f-ffaf382b12ae}, !- Handle
  {6a67f473-8e07-446d-9759-aea53e690a1f}, !- Zone or ZoneList Name
  SupplyAirTemperature,                   !- Zone Cooling Design Supply Air Temperature Input Method
  14,                                     !- Zone Cooling Design Supply Air Temperature {C}
  11.11,                                  !- Zone Cooling Design Supply Air Temperature Difference {deltaC}
  SupplyAirTemperature,                   !- Zone Heating Design Supply Air Temperature Input Method
  40,                                     !- Zone Heating Design Supply Air Temperature {C}
  11.11,                                  !- Zone Heating Design Supply Air Temperature Difference {deltaC}
  0.0085,                                 !- Zone Cooling Design Supply Air Humidity Ratio {kg-H2O/kg-air}
  0.008,                                  !- Zone Heating Design Supply Air Humidity Ratio {kg-H2O/kg-air}
  ,                                       !- Zone Heating Sizing Factor
  ,                                       !- Zone Cooling Sizing Factor
  DesignDay,                              !- Cooling Design Air Flow Method
  ,                                       !- Cooling Design Air Flow Rate {m3/s}
  ,                                       !- Cooling Minimum Air Flow per Zone Floor Area {m3/s-m2}
  ,                                       !- Cooling Minimum Air Flow {m3/s}
  ,                                       !- Cooling Minimum Air Flow Fraction
  DesignDay,                              !- Heating Design Air Flow Method
  ,                                       !- Heating Design Air Flow Rate {m3/s}
  ,                                       !- Heating Maximum Air Flow per Zone Floor Area {m3/s-m2}
  ,                                       !- Heating Maximum Air Flow {m3/s}
  ,                                       !- Heating Maximum Air Flow Fraction
  No,                                     !- Account for Dedicated Outdoor Air System
  NeutralSupplyAir,                       !- Dedicated Outdoor Air System Control Strategy
  autosize,                               !- Dedicated Outdoor Air Low Setpoint Temperature for Design {C}
  autosize,                               !- Dedicated Outdoor Air High Setpoint Temperature for Design {C}
  Sensible Load Only No Latent Load,      !- Zone Load Sizing Method
  HumidityRatioDifference,                !- Zone Latent Cooling Design Supply Air Humidity Ratio Input Method
  ,                                       !- Zone Dehumidification Design Supply Air Humidity Ratio {kgWater/kgDryAir}
  0.005,                                  !- Zone Cooling Design Supply Air Humidity Ratio Difference {kgWater/kgDryAir}
  HumidityRatioDifference,                !- Zone Latent Heating Design Supply Air Humidity Ratio Input Method
  ,                                       !- Zone Humidification Design Supply Air Humidity Ratio {kgWater/kgDryAir}
  0.005,                                  !- Zone Humidification Design Supply Air Humidity Ratio Difference {kgWater/kgDryAir}
  ,                                       !- Zone Humidistat Dehumidification Set Point Schedule Name
  ,                                       !- Zone Humidistat Humidification Set Point Schedule Name
  ,                                       !- Design Zone Air Distribution Effectiveness in Cooling Mode
  ,                                       !- Design Zone Air Distribution Effectiveness in Heating Mode
  ,                                       !- Design Zone Secondary Recirculation Fraction {dimensionless}
  ,                                       !- Design Minimum Zone Ventilation Efficiency {dimensionless}
  Coincident;                             !- Sizing Option

OS:ZoneHVAC:EquipmentList,
  {b31ac17f-a473-4bd8-b91c-5527b007095c}, !- Handle
  Zone HVAC Equipment List 2,             !- Name
  {6a67f473-8e07-446d-9759-aea53e690a1f}; !- Thermal Zone

OS:AdditionalProperties,
  {48756cfc-43f2-43ce-8321-a6214eb25eba}, !- Handle
  {6a67f473-8e07-446d-9759-aea53e690a1f}, !- Object Name
  ObjectType,                             !- Feature Name 1
  String,                                 !- Feature Data Type 1
  attic - vented;                         !- Feature Value 1

OS:Space,
  {14c98eef-7ad9-4fb1-881c-17a1aa8b40bf}, !- Handle
  attic - vented 1,                       !- Name
  ,                                       !- Space Type Name
  ,                                       !- Default Construction Set Name
  ,                                       !- Default Schedule Set Name
  ,                                       !- Direction of Relative North {deg}
  ,                                       !- X Origin {m}
  ,                                       !- Y Origin {m}
  ,                                       !- Z Origin {m}
  ,                                       !- Building Story Name
  {6a67f473-8e07-446d-9759-aea53e690a1f}, !- Thermal Zone Name
  ,                                       !- Part of Total Floor Area
  ,                                       !- Design Specification Outdoor Air Object Name
  ,                                       !- Building Unit Name
  356.390921899745;                       !- Volume {m3}

OS:Material,
  {1942cafe-a365-4df3-8ee1-0e277083917b}, !- Handle
  asphalt or fiberglass shingles,         !- Name
  Rough,                                  !- Roughness
  0.00635,                                !- Thickness {m}
  0.162714,                               !- Conductivity {W/m-K}
  1121.4,                                 !- Density {kg/m3}
  1465.45,                                !- Specific Heat {J/kg-K}
  0.9,                                    !- Thermal Absorptance
  0.85,                                   !- Solar Absorptance