
OS:Version,
  {3576bfe8-3a6c-414a-b0eb-c574262ec25b}, !- Handle
  3.10.0;                                 !- Version Identifier

OS:SimulationControl,
  {8305e45a-fbb4-4aaf-a38f-18d08eda23d2}, !- Handle
  ,                                       !- Do Zone Sizing Calculation
  ,                                       !- Do System Sizing Calculation
  ,                                       !- Do Plant Sizing Calculation
  No;                                     !- Run Simulation for Sizing Periods

OS:Timestep,
  {363b507a-72a1-4181-87ca-c74d19fdcfd9}, !- Handle
  1;                                      !- Number of Timesteps per Hour

OS:ShadowCalculation,
  {0f71127d-5e32-4da1-9600-12bf81558f3e}, !- Handle
  PolygonClipping,                        !- Shading Calculation Method
  ,                                       !- Shading Calculation Update Frequency Method
  20,                                     !- Shading Calculation Update Frequency
  200,                                    !- Maximum Figures in Shadow Overlap Calculations
  ,                                       !- Polygon Clipping Algorithm
  512,                                    !- Pixel Counting Resolution
  ,                                       !- Sky Diffuse Modeling Algorithm
  No,                                     !- Output External Shading Calculation Results
  No,                                     !- Disable Self-Shading Within Shading Zone Groups
  No;                                     !- Disable Self-Shading From Shading Zone Groups to Other Zones

OS:SurfaceConvectionAlgorithm:Outside,
  {d2a27013-c103-4462-ba7d-ea119c08ee9d}, !- Handle
  DOE-2;                                  !- Algorithm

OS:SurfaceConvectionAlgorithm:Inside,
  {10d7dda3-3af5-4d9b-b521-7a719672eee2}, !- Handle
  TARP;                                   !- Algorithm

OS:ZoneCapacitanceMultiplier:ResearchSpecial,
  {42879f2f-cd22-45cb-b2ac-0f8d0fa7558f}, !- Handle
  7,                                      !- Temperature Capacity Multiplier
  15,                                     !- Humidity Capacity Multiplier
  ;                                       !- Carbon Dioxide Capacity Multiplier

OS:ConvergenceLimits,
  {903a0a2a-e340-43d3-ba74-d3b7b61e74eb}, !- Handle
  0;                                      !- Minimum System Timestep {minutes}

OS:RunPeriod,
  {510548d6-2abe-429c-9ae9-bb6a62a70a55}, !- Handle
  Run Period 1,                           !- Name
  1,                                      !- Begin Month
  1,                                      !- Begin Day of Month
  12,                                     !- End Month
  31,                                     !- End Day of Month
  ,                                       !- Use Weather File Holidays and Special Days
  ,                                       !- Use Weather File Daylight Saving Period
  ,                                       !- Apply Weekend Holiday Rule
  ,                                       !- Use Weather File Rain Indicators
  ,                                       !- Use Weather File Snow Indicators
  ;                                       !- Number of Times Runperiod to be Repeated

OS:PerformancePrecisionTradeoffs,
  {ceb50263-bf0c-4e5a-8ca9-fbb7298dd688}, !- Handle
  ,                                       !- Use Coil Direct Solutions
  CarrollMRT;                             !- Zone Radiant Exchange Algorithm

OS:WeatherFile,
  {afcc6724-5b85-4d7e-b3a4-b984bbc00c52}, !- Handle
  Buffalo Niagara Intl Ap,                !- City
  NY,                                     !- State Province Region
  USA,                                    !- Country
  TMY3,                                   !- Data Source
  725280,                                 !- WMO Number
  42.93,                                  !- Latitude {deg}
  -78.73,                                 !- Longitude {deg}
  -5,                                     !- Time Zone {hr}
  215,                                    !- Elevation {m}
  /Users/nmoore/github/urbanopt-example-geojson-project/example_project/weather/USA_NY_Buffalo-Greater.Buffalo.Intl.AP.725280_TMY3.epw, !- Url
  6B50E0FF,                               !- Checksum
  ,                                       !- Start Date Actual Year
  Sunday;                                 !- Start Day of Week

OS:YearDescription,
  {dbe99bca-3d4d-4c6b-a7ca-88afc7bf6fcc}, !- Handle
  2007,                                   !- Calendar Year
  ,                                       !- Day of Week for Start Day
  ;                                       !- Is Leap Year

OS:Site,
  {585fa453-2c22-45dd-95dd-f67caea06771}, !- Handle
  Buffalo Niagara Intl Ap_NY,             !- Name
  42.93,                                  !- Latitude {deg}
  -78.73,                                 !- Longitude {deg}
  -5,                                     !- Time Zone {hr}
  215,                                    !- Elevation {m}
  Suburbs,                                !- Terrain
  Yes;                                    !- Keep Site Location Information

OS:RunPeriodControl:DaylightSavingTime,
  {7d84de9e-6c27-4fca-b873-6c75f82b0a92}, !- Handle
  Mar 12,                                 !- Start Date
  Nov 5;                                  !- End Date

OS:Site:GroundTemperature:Shallow,
  {a658022e-22da-4f2e-a9ff-e9f9a4d143e2}, !- Handle
  4.30207395723828,                       !- January Surface Ground Temperature {C}
  2.29327249652502,                       !- February Surface Ground Temperature {C}
  2.13240047156047,                       !- March Surface Ground Temperature {C}
  3.08567940719286,                       !- April Surface Ground Temperature {C}
  6.91256312497526,                       !- May Surface Ground Temperature {C}
  10.7216195949507,                       !- June Surface Ground Temperature {C}
  14.0238679822574,                       !- July Surface Ground Temperature {C}
  16.1157611184724,                       !- August Surface Ground Temperature {C}
  16.2934789303462,                       !- September Surface Ground Temperature {C}
  14.5920754632847,                       !- October Surface Ground Temperature {C}
  11.374036348653,                        !- November Surface Ground Temperature {C}
  7.68182621661674;                       !- December Surface Ground Temperature {C}

OS:ThermalZone,
  {1a5cccb8-e532-47a2-b417-ccc80b94ffd6}, !- Handle
  conditioned space,                      !- Name
  1,                                      !- Multiplier
  ,                                       !- Ceiling Height {m}
  346.03186535424,                        !- Volume {m3}
  ,                                       !- Floor Area {m2}
  ,                                       !- Zone Inside Convection Algorithm
  ,                                       !- Zone Outside Convection Algorithm
  ,                                       !- Zone Conditioning Equipment List Name
  {70f6da6e-8399-449a-92cc-d2950a08d530}, !- Zone Air Inlet Port List
  {4d8c26db-b112-4c0d-9bc0-68323f2106dd}, !- Zone Air Exhaust Port List
  {e9b29b21-67f6-431a-aaa7-04cb4e0e4c6b}, !- Zone Air Node Name
  {85f103a9-a259-4ed6-9ad1-4678bdacbb0c}, !- Zone Return Air Port List
  ,                                       !- Primary Daylighting Control Name
  ,                                       !- Fraction of Zone Controlled by Primary Daylighting Control
  ,                                       !- Secondary Daylighting Control Name
  ,                                       !- Fraction of Zone Controlled by Secondary Daylighting Control
  ,                                       !- Illuminance Map Name
  ,                                       !- Group Rendering Name
  {fbc474f8-fa64-4a71-ae70-0b905a7d23a1}, !- Thermostat Name
  No;                                     !- Use Ideal Air Loads

OS:Node,
  {e879ce17-feb1-4223-86bb-ab215d4083b1}, !- Handle
  Node 1,                                 !- Name
  {e9b29b21-67f6-431a-aaa7-04cb4e0e4c6b}, !- Inlet Port
  ;                                       !- Outlet Port

OS:Connection,
  {e9b29b21-67f6-431a-aaa7-04cb4e0e4c6b}, !- Handle
  {1a5cccb8-e532-47a2-b417-ccc80b94ffd6}, !- Source Object
  11,                                     !- Outlet Port
  {e879ce17-feb1-4223-86bb-ab215d4083b1}, !- Target Object
  2;                                      !- Inlet Port

OS:PortList,
  {70f6da6e-8399-449a-92cc-d2950a08d530}, !- Handle
  {1a5cccb8-e532-47a2-b417-ccc80b94ffd6}, !- HVAC Component
  {7b1c2285-d7be-44b7-834e-72f8ae887344}; !- Port 1

OS:PortList,
  {4d8c26db-b112-4c0d-9bc0-68323f2106dd}, !- Handle
  {1a5cccb8-e532-47a2-b417-ccc80b94ffd6}; !- HVAC Component

OS:PortList,
  {85f103a9-a259-4ed6-9ad1-4678bdacbb0c}, !- Handle
  {1a5cccb8-e532-47a2-b417-ccc80b94ffd6}, !- HVAC Component
  {5c2217da-19cf-42c1-bc06-9c2bda6209f2}; !- Port 1

OS:Sizing:Zone,
  {1796f07e-754c-4488-8593-14caa7e87218}, !- Handle
  {1a5cccb8-e532-47a2-b417-ccc80b94ffd6}, !- Zone or ZoneList Name
  SupplyAirTemperature,                   !- Zone Cooling Design Supply Air Temperature Input Method
  14,                                     !- Zone Cooling Design Supply Air Temperature {C}
  11.11,                                  !- Zone Cooling Design Supply Air Temperature Difference {deltaC}
  SupplyAirTemperature,                   !- Zone Heating Design Supply Air Temperature Input Method
  40,                                     !- Zone Heating Design Supply Air Temperature {C}
  11.11,                                  !- Zone Heating Design Supply Air Temperature Difference {deltaC}
  0.0085,                                 !- Zone Cooling Design Supply Air Humidity Ratio {kg-H2O/kg-air}
  0.008,                                  !- Zone Heating Design Supply Air Humidity Ratio {kg-H2O/kg-air}
  ,                                       !- Zone Heating Sizing Factor
  ,                                       !- Zone Cooling Sizing Factor
  DesignDay,                              !- Cooling Design Air Flow Method
  ,                                       !- Cooling Design Air Flow Rate {m3/s}
  ,                                       !- Cooling Minimum Air Flow per Zone Floor Area {m3/s-m2}
  ,                                       !- Cooling Minimum Air Flow {m3/s}
  ,                                       !- Cooling Minimum Air Flow Fraction
  DesignDay,                              !- Heating Design Air Flow Method
  ,                                       !- Heating Design Air Flow Rate {m3/s}
  ,                                       !- Heating Maximum Air Flow per Zone Floor Area {m3/s-m2}
  ,                                       !- Heating Maximum Air Flow {m3/s}
  ,                                       !- Heating Maximum Air Flow Fraction
  No,                                     !- Account for Dedicated Outdoor Air System
  NeutralSupplyAir,                       !- Dedicated Outdoor Air System Control Strategy
  autosize,                               !- Dedicated Outdoor Air Low Setpoint Temperature for Design {C}
  autosize,                               !- Dedicated Outdoor Air High Setpoint Temperature for Design {C}
  Sensible Load Only No Latent Load,      !- Zone Load Sizing Method
  HumidityRatioDifference,                !- Zone Latent Cooling Design Supply Air Humidity Ratio Input Method
  ,                                       !- Zone Dehumidification Design Supply Air Humidity Ratio {kgWater/kgDryAir}
  0.005,                                  !- Zone Cooling Design Supply Air Humidity Ratio Difference {kgWater/kgDryAir}
  HumidityRatioDifference,                !- Zone Latent Heating Design Supply Air Humidity Ratio Input Method
  ,                                       !- Zone Humidification Design Supply Air Humidity Ratio {kgWater/kgDryAir}
  0.005,                                  !- Zone Humidification Design Supply Air Humidity Ratio Difference {kgWater/kgDryAir}
  ,                                       !- Zone Humidistat Dehumidification Set Point Schedule Name
  ,                                       !- Zone Humidistat Humidification Set Point Schedule Name
  ,                                       !- Design Zone Air Distribution Effectiveness in Cooling Mode
  ,                                       !- Design Zone Air Distribution Effectiveness in Heating Mode
  ,                                       !- Design Zone Secondary Recirculation Fraction {dimensionless}
  ,                                       !- Design Minimum Zone Ventilation Efficiency {dimensionless}
  Coincident;                             !- Sizing Option

OS:ZoneHVAC:EquipmentList,
  {97fe6e77-62f8-4cae-b97f-927eece489d7}, !- Handle
  Zone HVAC Equipment List 1,             !- Name
  {1a5cccb8-e532-47a2-b417-ccc80b94ffd6}, !- Thermal Zone
  ,                                       !- Load Distribution Scheme
  {a3bc088c-d4e9-409b-a70d-b6a0dc837d7b}, !- Zone Equipment 1
  1,                                      !- Zone Equipment Cooling Sequence 1
  1,                                      !- Zone Equipment Heating or No-Load Sequence 1
  {19f97f84-83d5-4fb2-b978-31a050b909b6}, !- Zone Equipment Sequential Cooling Fraction Schedule Name 1
  {250c3c44-cb88-409d-9a09-a1b868a13df7}; !- Zone Equipment Sequential Heating Fraction Schedule Name 1

OS:AdditionalProperties,
  {1fba9a41-65fc-4467-b304-0b5e365d9903}, !- Handle
  {1a5cccb8-e532-47a2-b417-ccc80b94ffd6}, !- Object Name
  ObjectType,                             !- Feature Name 1
  String,                                 !- Feature Data Type 1
  conditioned space;                      !- Feature Value 1

OS:Space,
  {dbd0b36e-0b52-41b5-90f8-6e8ad7b1ef02}, !- Handle
  conditioned space 1,                    !- Name
  ,                                       !- Space Type Name
  ,                                       !- Default Construction Set Name
  ,                                       !- Default Schedule Set Name
  ,                                       !- Direction of Relative North {deg}
  ,                                       !- X Origin {m}
  ,                                       !- Y Origin {m}
  ,                                       !- Z Origin {m}
  ,                                       !- Building Story Name
  {1a5cccb8-e532-47a2-b417-ccc80b94ffd6}, !- Thermal Zone Name
  ,                                       !- Part of Total Floor Area
  ,                                       !- Design Specification Outdoor Air Object Name
  ,                                       !- Building Unit Name
  346.03186535424;                        !- Volume {m3}

OS:Schedule:Ruleset,
  {04605854-21a2-4606-ab2f-6dba982bef73}, !- Handle
  heating setpoint,                       !- Name
  {95d07084-426a-4ef3-b224-18624e5d1272}, !- Schedule Type Limits Name
  {0a3cb937-8c5f-4aca-a565-551ab2d1570b}; !- Default Day Schedule Name

OS:Schedule:Day,
  {0a3cb937-8c5f-4aca-a565-551ab2d1570b}, !- Handle
  heating setpoint default day,           !- Name
  {95d07084-426a-4ef3-b224-18624e5d1272}, !- Schedule Type Limits Name
  ,                                       !- Interpolate to Timestep
  24,                                     !- Hour 1
  0,                                      !- Minute 1
  0;                                      !- Value Until Time 1

OS:Schedule:Rule,
  {fbaef472-23dc-4b89-8237-c063b487f376}, !- Handle
  heating setpoint allday rule,           !- Name
  {04605854-21a2-4606-ab2f-6dba982bef73}, !- Schedule Ruleset Name
  0,                                      !- Rule Order
  {96a2e2ac-2349-4033-b7bb-a4b99feed9f4}, !- Day Schedule Name
  Yes,                                    !- Apply Sunday
  Yes,                                    !- Apply Monday
  Yes,                                    !- Apply Tuesday
  Yes,                                    !- Apply Wednesday
  Yes,                                    !- Apply Thursday
  Yes,                                    !- Apply Friday
  Yes,                                    !- Apply Saturday
  DateRange,                              !- Date Specification Type
  1,                                      !- Start Month
  1,                                      !- Start Day
  12,                                     !- End Month
  31;                                     !- End Day

OS:Schedule:Day,
  {96a2e2ac-2349-4033-b7bb-a4b99feed9f4}, !- Handle
  heating setpoint day,                   !- Name
  {95d07084-426a-4ef3-b224-18624e5d1272}, !- Schedule Type Limits Name
  ,                                       !- Interpolate to Timestep
  24,                                     !- Hour 1
  0,                                      !- Minute 1
  20;                                     !- Value Until Time 1

OS:Schedule:Ruleset,
  {7be98a16-6386-4b8a-8b70-db3f2ddc6b5b}, !- Handle
  cooling setpoint,                       !- Name
  {95d07084-426a-4ef3-b224-18624e5d1272}, !- Schedule Type Limits Name
  {494d9017-9205-4435-976c-b7a5536ae6a7}; !- Default Day Schedule Name

OS:Schedule:Day,
  {494d9017-9205-4435-976c-b7a5536ae6a7}, !- Handle
  cooling setpoint default day,           !- Name
  {95d07084-426a-4ef3-b224-18624e5d1272}, !- Schedule Type Limits Name
  ,                                       !- Interpolate to Timestep
  24,                                     !- Hour 1
  0,                                      !- Minute 1
  0;                                      !- Value Until Time 1

OS:Schedule:Rule,
  {cfd31509-71d5-4f9f-8d85-c802226c6ac7}, !- Handle
  cooling setpoint allday rule,           !- Name
  {7be98a16-6386-4b8a-8b70-db3f2ddc6b5b}, !- Schedule Ruleset Name
  0,                                      !- Rule Order
  {c0cc52d1-7394-40cd-b2b5-5512cf86a232}, !- Day Schedule Name
  Yes,                                    !- Apply Sunday
  Yes,                                    !- Apply Monday
  Yes,                                    !- Apply Tuesday
  Yes,                                    !- Apply Wednesday
  Yes,                                    !- Apply Thursday
  Yes,                                    !- Apply Friday
  Yes,                                    !- Apply Saturday
  DateRange,                              !- Date Specification Type
  1,                                      !- Start Month
  1,                                      !- Start Day
  12,                                     !- End Month
  31;                                     !- End Day

OS:Schedule:Day,
  {c0cc52d1-7394-40cd-b2b5-5512cf86a232}, !- Handle
  cooling setpoint day,                   !- Name
  {95d07084-426a-4ef3-b224-18624e5d1272}, !- Schedule Type Limits Name
  ,                                       !- Interpolate to Timestep
  24,                                     !- Hour 1
  0,                                      !- Minute 1
  25.5555555555556;                       !- Value Until Time 1

OS:ThermostatSetpoint:DualSetpoint,
  {fbc474f8-fa64-4a71-ae70-0b905a7d23a1}, !- Handle
  conditioned space temperature setpoint, !- Name
  {04605854-21a2-4606-ab2f-6dba982bef73}, !- Heating Setpoint Temperature Schedule Name
  {7be98a16-6386-4b8a-8b70-db3f2ddc6b5b}, !- Cooling Setpoint Temperature Schedule Name
  0;                                      !- Temperature Difference Between Cutout And Setpoint {deltaC}

OS:ScheduleTypeLimits,
  {95d07084-426a-4ef3-b224-18624e5d1272}, !- Handle
  Temperature,                            !- Name
  ,                                       !- Lower Limit Value
  ,                                       !- Upper Limit Value
  Continuous,                             !- Numeric Type
  Temperature;                            !- Unit Type

OS:Surface,
  {fadabc33-f0b2-4dfe-b5b9-6afb18b5ec21}, !- Handle
  Roof1,                                  !- Name
  RoofCeiling,                            !- Surface Type
  {3ee58e46-5872-4993-96c8-8f4f46be58a7}, !- Construction Name
  {dbd0b36e-0b52-41b5-90f8-6e8ad7b1ef02}, !- Space Name
  Outdoors,                               !- Outside Boundary Condition
  ,                                       !- Outside Boundary Condition Object
  SunExposed,                             !- Sun Exposure
  WindExposed,                            !- Wind Exposure
  ,                                       !- View Factor to Ground
  ,                                       !- Number of Vertices
  -5.95628646053898, 5.95628646053898, 2.4384, !- X,Y,Z Vertex 1 {m}
  -5.95628646053898, -5.95628646053898, 2.4384, !- X,Y,Z Vertex 2 {m}
  5.95628646053898, -5.95628646053898, 2.4384, !- X,Y,Z Vertex 3 {m}
  5.95628646053898, 5.95628646053898, 2.4384; !- X,Y,Z Vertex 4 {m}

OS:AdditionalProperties,
  {2fd24026-8421-449a-98f3-f524d65c8d66}, !- Handle
  {fadabc33-f0b2-4dfe-b5b9-6afb18b5ec21}, !- Object Name
  Length,                                 !- Feature Name 1
  Double,                                 !- Feature Data Type 1
  39.083244491725608,                     !- Feature Value 1
  Width,                                  !- Feature Name 2
  Double,                                 !- Feature Data Type 2
  39.083244491725608,                     !- Feature Value 2
  Azimuth,                                !- Feature Name 3
  Integer,                                !- Feature Data Type 3
  0,                                      !- Feature Value 3
  Tilt,                                   !- Feature Name 4
  Double,                                 !- Feature Data Type 4
  0,                                      !- Feature Value 4
  SurfaceType,                            !- Feature Name 5
  String,                                 !- Feature Data Type 5
  Roof;                                   !- Feature Value 5

OS:Material,
  {5c4b894e-b80a-4033-aa80-f04fd5cd91b7}, !- Handle
  asphalt or fiberglass shingles,         !- Name
  Rough,                                  !- Roughness
  0.00635,                                !- Thickness {m}
  0.162714,                               !- Conductivity {W/m-K}
  1121.4,                                 !- Density {kg/m3}
  1465.45,                                !- Specific Heat {J/kg-K}
  0.9,                                    !- Thermal Absorptance
  0.85,                                   !- Solar Absorptance
  0.85;                                   !- Visible Absorptance

OS:Material,
  {13bed5a0-695d-4889-9fc3-ca2f7f074803}, !- Handle
  roof stud and cavity,                   !- Name
  Rough,                                  !- Roughness
  0.0889,                                 !- Thickness {m}
  0.491900632004487,                      !- Conductivity {W/m-K}
  50.32683,                               !- Density {kg/m3}
  1063.80987585548,                       !- Specific Heat {J/kg-K}
  0.9,                                    !- Thermal Absorptance
  0.7,                                    !- Solar Absorptance
  0.7;                                    !- Visible Absorptance

OS:Material,
  {4e0a185e-88a7-4b4d-9752-1a9cd806742a}, !- Handle
  gypsum board,                           !- Name
  Rough,                                  !- Roughness
  0.00254,                                !- Thickness {m}
  0.1602906,                              !- Conductivity {W/m-K}
  801,                                    !- Density {kg/m3}
  837.4,                                  !- Specific Heat {J/kg-K}
  0.9,                                    !- Thermal Absorptance
  0.6,                                    !- Solar Absorptance
  0.6;                                    !- Visible Absorptance

OS:Construction,
  {3ee58e46-5872-4993-96c8-8f4f46be58a7}, !- Handle
  Roof1 construction,                     !- Name
  ,                                       !- Surface Rendering Name
  {5c4b894e-b80a-4033-aa80-f04fd5cd91b7}, !- Layer 1
  {13bed5a0-695d-4889-9fc3-ca2f7f074803}, !- Layer 2
  {4e0a185e-88a7-4b4d-9752-1a9cd806742a}; !- Layer 3

OS:Surface,
  {860e801d-3934-4b71-bd6e-4eb4ffc3b032}, !- Handle
  Wall1,                                  !- Name
  Wall,                                   !- Surface Type
  {907e6785-9858-48ba-9fdc-f02bdce881aa}, !- Construction Name
  {dbd0b36e-0b52-41b5-90f8-6e8ad7b1ef02}, !- Space Name
  Outdoors,                               !- Outside Boundary Condition
  ,                                       !- Outside Boundary Condition Object
  SunExposed,                             !- Sun Exposure
  WindExposed,                            !- Wind Exposure
  ,                                       !- View Factor to Ground
  ,                                       !- Number of Vertices
  -29.479875, 30.4089054, 0,              !- X,Y,Z Vertex 1 {m}
  -29.479875, 30.4089054, 4.8768,         !- X,Y,Z Vertex 2 {m}
  -21.055965, 30.4089054, 4.8768,         !- X,Y,Z Vertex 3 {m}
  -21.055965, 30.4089054, 0;              !- X,Y,Z Vertex 4 {m}

OS:AdditionalProperties,
  {de88d8d2-2020-4093-b5d5-9cc900f8505a}, !- Handle
  {860e801d-3934-4b71-bd6e-4eb4ffc3b032}, !- Object Name
  Length,                                 !- Feature Name 1
  Double,                                 !- Feature Data Type 1
  27.637499999999999,                     !- Feature Value 1
  Azimuth,                                !- Feature Name 2
  Integer,                                !- Feature Data Type 2
  0,                                      !- Feature Value 2
  Tilt,                                   !- Feature Name 3
  Double,                                 !- Feature Data Type 3
  90,                                     !- Feature Value 3
  SurfaceType,                            !- Feature Name 4
  String,                                 !- Feature Data Type 4
  Wall;                                   !- Feature Value 4

OS:Material,
  {d069b3c7-d830-463e-8616-bae6be04009f}, !- Handle
  wood siding,                            !- Name
  Rough,                                  !- Roughness
  0.0254,                                 !- Thickness {m}
  0.1024175,                              !- Conductivity {W/m-K}
  544.68,                                 !- Density {kg/m3}
  1172.36,                                !- Specific Heat {J/kg-K}
  0.9,                                    !- Thermal Absorptance
  0.7,                                    !- Solar Absorptance
  0.7;                                    !- Visible Absorptance

OS:Material,
  {9de60cc3-f777-4dfe-bbb4-3e041e83d93d}, !- Handle
  osb sheathing 0.5 in.,                  !- Name
  Rough,                                  !- Roughness
  0.0127,                                 !- Thickness {m}
  0.1154577,                              !- Conductivity {W/m-K}
  512.64,                                 !- Density {kg/m3}
  1214.23,                                !- Specific Heat {J/kg-K}
  0.9,                                    !- Thermal Absorptance
  0.7,                                    !- Solar Absorptance
  0.7;                                    !- Visible Absorptance

OS:Material,
  {18a56757-bcda-4288-8769-924001eba804}, !- Handle
  wall stud and cavity,                   !- Name
  Rough,                                  !- Roughness
  0.1397,                                 !- Thickness {m}
  0.0929021674204099,                     !- Conductivity {W/m-K}
  139.0536,                               !- Density {kg/m3}
  1170.23755760369,                       !- Specific Heat {J/kg-K}
  0.9,                                    !- Thermal Absorptance
  0.7,                                    !- Solar Absorptance
  0.7;                                    !- Visible Absorptance

OS:Material,
  {3734be05-05fc-45bd-acef-f87204a3f79d}, !- Handle
  gypsum board 1,                         !- Name
  Rough,                                  !- Roughness
  0.0127,                                 !- Thickness {m}
  0.1602906,                              !- Conductivity {W/m-K}
  801,                                    !- Density {kg/m3}
  837.4,                                  !- Specific Heat {J/kg-K}
  0.9,                                    !- Thermal Absorptance
  0.6,                                    !- Solar Absorptance
  0.6;                                    !- Visible Absorptance

OS:Construction,
  {907e6785-9858-48ba-9fdc-f02bdce881aa}, !- Handle
  Wall1 construction,                     !- Name
  ,                                       !- Surface Rendering Name
  {d069b3c7-d830-463e-8616-bae6be04009f}, !- Layer 1
  {9de60cc3-f777-4dfe-bbb4-3e041e83d93d}, !- Layer 2
  {18a56757-bcda-4288-8769-924001eba804}, !- Layer 3
  {3734be05-05fc-45bd-acef-f87204a3f79d}; !- Layer 4

OS:Surface,
  {b6fc5020-426c-4b5f-874b-3ef173d3d253}, !- Handle
  Wall2,                                  !- Name
  Wall,                                   !- Surface Type
  {d3a51479-ae0e-4547-8f51-0adbc786b09d}, !- Construction Name
  {dbd0b36e-0b52-41b5-90f8-6e8ad7b1ef02}, !- Space Name
  Outdoors,                               !- Outside Boundary Condition
  ,                                       !- Outside Boundary Condition Object
  SunExposed,                             !- Sun Exposure
  WindExposed,                            !- Wind Exposure
  ,                                       !- View Factor to Ground
  ,                                       !- Number of Vertices
  30.4089054, -26.1969504, 0,             !- X,Y,Z Vertex 1 {m}
  30.4089054, -26.1969504, 4.8768,        !- X,Y,Z Vertex 2 {m}
  30.4089054, -30.4089054, 4.8768,        !- X,Y,Z Vertex 3 {m}
  30.4089054, -30.4089054, 0;             !- X,Y,Z Vertex 4 {m}

OS:AdditionalProperties,
  {f5d4e425-8d22-4b34-ba08-b6ac15418dce}, !- Handle
  {b6fc5020-426c-4b5f-874b-3ef173d3d253}, !- Object Name
  Length,                                 !- Feature Name 1
  Double,                                 !- Feature Data Type 1
  13.81875,                               !- Feature Value 1
  Azimuth,                                !- Feature Name 2