
OS:Version,
  {3d4c1004-4e9e-402b-a7d1-161e900d81b8}, !- Handle
  3.9.0;                                  !- Version Identifier

OS:SimulationControl,
  {a3038ef3-dac1-4b9d-adde-b9e005973d3d}, !- Handle
  ,                                       !- Do Zone Sizing Calculation
  ,                                       !- Do System Sizing Calculation
  ,                                       !- Do Plant Sizing Calculation
  No;                                     !- Run Simulation for Sizing Periods

OS:Timestep,
  {4f5641d6-4cf7-4bb1-aab6-c039fce22251}, !- Handle
  1;                                      !- Number of Timesteps per Hour

OS:ShadowCalculation,
  {3b2adac3-35f7-4062-a2c1-3062abd9f038}, !- Handle
  PolygonClipping,                        !- Shading Calculation Method
  ,                                       !- Shading Calculation Update Frequency Method
  20,                                     !- Shading Calculation Update Frequency
  200,                                    !- Maximum Figures in Shadow Overlap Calculations
  ,                                       !- Polygon Clipping Algorithm
  512,                                    !- Pixel Counting Resolution
  ,                                       !- Sky Diffuse Modeling Algorithm
  No,                                     !- Output External Shading Calculation Results
  No,                                     !- Disable Self-Shading Within Shading Zone Groups
  No;                                     !- Disable Self-Shading From Shading Zone Groups to Other Zones

OS:SurfaceConvectionAlgorithm:Outside,
  {bff42fbf-4baa-40bc-be6e-5a5847986f52}, !- Handle
  DOE-2;                                  !- Algorithm

OS:SurfaceConvectionAlgorithm:Inside,
  {38b914f9-c6cf-416e-8330-fe2bf494dbde}, !- Handle
  TARP;                                   !- Algorithm

OS:ZoneCapacitanceMultiplier:ResearchSpecial,
  {43371572-5c1c-441b-a629-ada2fd8c7cb8}, !- Handle
  7,                                      !- Temperature Capacity Multiplier
  15,                                     !- Humidity Capacity Multiplier
  ;                                       !- Carbon Dioxide Capacity Multiplier

OS:ConvergenceLimits,
  {2b05dade-c6d3-417a-b321-4f4759c266b0}, !- Handle
  0;                                      !- Minimum System Timestep {minutes}

OS:RunPeriod,
  {e35900db-fb9a-4db0-9e0f-c4d8b3346241}, !- Handle
  Run Period 1,                           !- Name
  1,                                      !- Begin Month
  1,                                      !- Begin Day of Month
  12,                                     !- End Month
  31,                                     !- End Day of Month
  ,                                       !- Use Weather File Holidays and Special Days
  ,                                       !- Use Weather File Daylight Saving Period
  ,                                       !- Apply Weekend Holiday Rule
  ,                                       !- Use Weather File Rain Indicators
  ,                                       !- Use Weather File Snow Indicators
  ;                                       !- Number of Times Runperiod to be Repeated

OS:PerformancePrecisionTradeoffs,
  {23c73c68-6b4f-467b-bb86-8a1d63229485}, !- Handle
  ,                                       !- Use Coil Direct Solutions
  CarrollMRT;                             !- Zone Radiant Exchange Algorithm

OS:WeatherFile,
  {b630278c-55d3-4461-8ba0-da3b6f86e37a}, !- Handle
  Buffalo Niagara Intl Ap,                !- City
  NY,                                     !- State Province Region
  USA,                                    !- Country
  TMY3,                                   !- Data Source
  725280,                                 !- WMO Number
  42.93,                                  !- Latitude {deg}
  -78.73,                                 !- Longitude {deg}
  -5,                                     !- Time Zone {hr}
  215,                                    !- Elevation {m}
  /Users/nmoore/github/urbanopt-example-geojson-project/example_project/weather/USA_NY_Buffalo-Greater.Buffalo.Intl.AP.725280_TMY3.epw, !- Url
  6B50E0FF,                               !- Checksum
  ,                                       !- Start Date Actual Year
  Sunday;                                 !- Start Day of Week

OS:YearDescription,
  {0d33a67f-dcf6-4045-8071-5e1fdbb381ea}, !- Handle
  2007,                                   !- Calendar Year
  ,                                       !- Day of Week for Start Day
  ;                                       !- Is Leap Year

OS:Site,
  {b0ddb94d-2d5b-4c16-9dd2-b0804d951975}, !- Handle
  Buffalo Niagara Intl Ap_NY,             !- Name
  42.93,                                  !- Latitude {deg}
  -78.73,                                 !- Longitude {deg}
  -5,                                     !- Time Zone {hr}
  215,                                    !- Elevation {m}
  Suburbs,                                !- Terrain
  Yes;                                    !- Keep Site Location Information

OS:RunPeriodControl:DaylightSavingTime,
  {6ce2da10-0037-423e-ab89-0fb14470fd33}, !- Handle
  Mar 12,                                 !- Start Date
  Nov 5;                                  !- End Date

OS:Site:GroundTemperature:Shallow,
  {372c1e2d-d9d3-41f1-b4d5-f7baf4701f71}, !- Handle
  4.30207395723828,                       !- January Surface Ground Temperature {C}
  2.29327249652502,                       !- February Surface Ground Temperature {C}
  2.13240047156047,                       !- March Surface Ground Temperature {C}
  3.08567940719286,                       !- April Surface Ground Temperature {C}
  6.91256312497526,                       !- May Surface Ground Temperature {C}
  10.7216195949507,                       !- June Surface Ground Temperature {C}
  14.0238679822574,                       !- July Surface Ground Temperature {C}
  16.1157611184724,                       !- August Surface Ground Temperature {C}
  16.2934789303462,                       !- September Surface Ground Temperature {C}
  14.5920754632847,                       !- October Surface Ground Temperature {C}
  11.374036348653,                        !- November Surface Ground Temperature {C}
  7.68182621661674;                       !- December Surface Ground Temperature {C}

OS:ThermalZone,
  {2a35e41d-754a-4663-9140-725632b0b873}, !- Handle
  conditioned space,                      !- Name
  1,                                      !- Multiplier
  ,                                       !- Ceiling Height {m}
  346.03186535424,                        !- Volume {m3}
  ,                                       !- Floor Area {m2}
  ,                                       !- Zone Inside Convection Algorithm
  ,                                       !- Zone Outside Convection Algorithm
  ,                                       !- Zone Conditioning Equipment List Name
  {2544a189-6dcd-4d32-89e2-244b662adcb6}, !- Zone Air Inlet Port List
  {ee60e525-7ab4-405d-8b62-c1e74c0eb543}, !- Zone Air Exhaust Port List
  {7f1eeddc-4e11-4e47-bb9f-fd2dbc565f3d}, !- Zone Air Node Name
  {9a44c93f-c5bb-4b1f-957a-7011f63f049a}, !- Zone Return Air Port List
  ,                                       !- Primary Daylighting Control Name
  ,                                       !- Fraction of Zone Controlled by Primary Daylighting Control
  ,                                       !- Secondary Daylighting Control Name
  ,                                       !- Fraction of Zone Controlled by Secondary Daylighting Control
  ,                                       !- Illuminance Map Name
  ,                                       !- Group Rendering Name
  {ed345f94-f400-4a68-a6a3-29513f6cfb76}, !- Thermostat Name
  No;                                     !- Use Ideal Air Loads

OS:Node,
  {5f0e1dac-43ed-4143-8229-97a2a83233a1}, !- Handle
  Node 1,                                 !- Name
  {7f1eeddc-4e11-4e47-bb9f-fd2dbc565f3d}, !- Inlet Port
  ;                                       !- Outlet Port

OS:Connection,
  {7f1eeddc-4e11-4e47-bb9f-fd2dbc565f3d}, !- Handle
  {2a35e41d-754a-4663-9140-725632b0b873}, !- Source Object
  11,                                     !- Outlet Port
  {5f0e1dac-43ed-4143-8229-97a2a83233a1}, !- Target Object
  2;                                      !- Inlet Port

OS:PortList,
  {2544a189-6dcd-4d32-89e2-244b662adcb6}, !- Handle
  {2a35e41d-754a-4663-9140-725632b0b873}, !- HVAC Component
  {2a618c33-791a-419e-a54e-906dc839d340}; !- Port 1

OS:PortList,
  {ee60e525-7ab4-405d-8b62-c1e74c0eb543}, !- Handle
  {2a35e41d-754a-4663-9140-725632b0b873}; !- HVAC Component

OS:PortList,
  {9a44c93f-c5bb-4b1f-957a-7011f63f049a}, !- Handle
  {2a35e41d-754a-4663-9140-725632b0b873}, !- HVAC Component
  {fe8d0867-b692-4ecc-9f10-b3de6ce7103f}; !- Port 1

OS:Sizing:Zone,
  {0e53740d-3c11-408a-a630-6ac4ceba2da3}, !- Handle
  {2a35e41d-754a-4663-9140-725632b0b873}, !- Zone or ZoneList Name
  SupplyAirTemperature,                   !- Zone Cooling Design Supply Air Temperature Input Method
  14,                                     !- Zone Cooling Design Supply Air Temperature {C}
  11.11,                                  !- Zone Cooling Design Supply Air Temperature Difference {deltaC}
  SupplyAirTemperature,                   !- Zone Heating Design Supply Air Temperature Input Method
  40,                                     !- Zone Heating Design Supply Air Temperature {C}
  11.11,                                  !- Zone Heating Design Supply Air Temperature Difference {deltaC}
  0.0085,                                 !- Zone Cooling Design Supply Air Humidity Ratio {kg-H2O/kg-air}
  0.008,                                  !- Zone Heating Design Supply Air Humidity Ratio {kg-H2O/kg-air}
  ,                                       !- Zone Heating Sizing Factor
  ,                                       !- Zone Cooling Sizing Factor
  DesignDay,                              !- Cooling Design Air Flow Method
  ,                                       !- Cooling Design Air Flow Rate {m3/s}
  ,                                       !- Cooling Minimum Air Flow per Zone Floor Area {m3/s-m2}
  ,                                       !- Cooling Minimum Air Flow {m3/s}
  ,                                       !- Cooling Minimum Air Flow Fraction
  DesignDay,                              !- Heating Design Air Flow Method
  ,                                       !- Heating Design Air Flow Rate {m3/s}
  ,                                       !- Heating Maximum Air Flow per Zone Floor Area {m3/s-m2}
  ,                                       !- Heating Maximum Air Flow {m3/s}
  ,                                       !- Heating Maximum Air Flow Fraction
  No,                                     !- Account for Dedicated Outdoor Air System
  NeutralSupplyAir,                       !- Dedicated Outdoor Air System Control Strategy
  autosize,                               !- Dedicated Outdoor Air Low Setpoint Temperature for Design {C}
  autosize,                               !- Dedicated Outdoor Air High Setpoint Temperature for Design {C}
  Sensible Load Only No Latent Load,      !- Zone Load Sizing Method
  HumidityRatioDifference,                !- Zone Latent Cooling Design Supply Air Humidity Ratio Input Method
  ,                                       !- Zone Dehumidification Design Supply Air Humidity Ratio {kgWater/kgDryAir}
  0.005,                                  !- Zone Cooling Design Supply Air Humidity Ratio Difference {kgWater/kgDryAir}
  HumidityRatioDifference,                !- Zone Latent Heating Design Supply Air Humidity Ratio Input Method
  ,                                       !- Zone Humidification Design Supply Air Humidity Ratio {kgWater/kgDryAir}
  0.005,                                  !- Zone Humidification Design Supply Air Humidity Ratio Difference {kgWater/kgDryAir}
  ,                                       !- Zone Humidistat Dehumidification Set Point Schedule Name
  ,                                       !- Zone Humidistat Humidification Set Point Schedule Name
  ,                                       !- Design Zone Air Distribution Effectiveness in Cooling Mode
  ,                                       !- Design Zone Air Distribution Effectiveness in Heating Mode
  ,                                       !- Design Zone Secondary Recirculation Fraction {dimensionless}
  ,                                       !- Design Minimum Zone Ventilation Efficiency {dimensionless}
  Coincident;                             !- Sizing Option

OS:ZoneHVAC:EquipmentList,
  {7e02926d-0a11-4038-bd7a-16b3ea88d403}, !- Handle
  Zone HVAC Equipment List 1,             !- Name
  {2a35e41d-754a-4663-9140-725632b0b873}, !- Thermal Zone
  ,                                       !- Load Distribution Scheme
  {2317b746-247e-4de4-9a8e-fb0451fd3dc5}, !- Zone Equipment 1
  1,                                      !- Zone Equipment Cooling Sequence 1
  1,                                      !- Zone Equipment Heating or No-Load Sequence 1
  {91788018-2d76-4b00-a4d0-0e591d8aba8e}, !- Zone Equipment Sequential Cooling Fraction Schedule Name 1
  {dacd1fbc-755c-4970-ad1f-35c6fb2abcef}; !- Zone Equipment Sequential Heating Fraction Schedule Name 1

OS:AdditionalProperties,
  {228af5b7-b370-4f5f-8a05-1e28c1bf5545}, !- Handle
  {2a35e41d-754a-4663-9140-725632b0b873}, !- Object Name
  ObjectType,                             !- Feature Name 1
  String,                                 !- Feature Data Type 1
  conditioned space;                      !- Feature Value 1

OS:Space,
  {e63da946-e660-4cb5-a2ac-292af11f2b4f}, !- Handle
  conditioned space 1,                    !- Name
  ,                                       !- Space Type Name
  ,                                       !- Default Construction Set Name
  ,                                       !- Default Schedule Set Name
  ,                                       !- Direction of Relative North {deg}
  ,                                       !- X Origin {m}
  ,                                       !- Y Origin {m}
  ,                                       !- Z Origin {m}
  ,                                       !- Building Story Name
  {2a35e41d-754a-4663-9140-725632b0b873}, !- Thermal Zone Name
  ,                                       !- Part of Total Floor Area
  ,                                       !- Design Specification Outdoor Air Object Name
  ,                                       !- Building Unit Name
  346.03186535424;                        !- Volume {m3}

OS:Schedule:Ruleset,
  {81dc7516-50ec-4d5a-b737-19ccd445148f}, !- Handle
  heating setpoint,                       !- Name
  {37f5c1a2-82f3-459a-89db-79a79e3d8901}, !- Schedule Type Limits Name
  {db20549b-6a24-40c8-a2ce-7657ada87c94}; !- Default Day Schedule Name

OS:Schedule:Day,
  {db20549b-6a24-40c8-a2ce-7657ada87c94}, !- Handle
  heating setpoint default day,           !- Name
  {37f5c1a2-82f3-459a-89db-79a79e3d8901}, !- Schedule Type Limits Name
  ,                                       !- Interpolate to Timestep
  24,                                     !- Hour 1
  0,                                      !- Minute 1
  0;                                      !- Value Until Time 1

OS:Schedule:Rule,
  {0652304b-0576-4c30-98dc-7f37b5a3a762}, !- Handle
  heating setpoint allday rule,           !- Name
  {81dc7516-50ec-4d5a-b737-19ccd445148f}, !- Schedule Ruleset Name
  0,                                      !- Rule Order
  {e62a714f-c083-4846-bc81-edccc3f231c5}, !- Day Schedule Name
  Yes,                                    !- Apply Sunday
  Yes,                                    !- Apply Monday
  Yes,                                    !- Apply Tuesday
  Yes,                                    !- Apply Wednesday
  Yes,                                    !- Apply Thursday
  Yes,                                    !- Apply Friday
  Yes,                                    !- Apply Saturday
  DateRange,                              !- Date Specification Type
  1,                                      !- Start Month
  1,                                      !- Start Day
  12,                                     !- End Month
  31;                                     !- End Day

OS:Schedule:Day,
  {e62a714f-c083-4846-bc81-edccc3f231c5}, !- Handle
  heating setpoint day,                   !- Name
  {37f5c1a2-82f3-459a-89db-79a79e3d8901}, !- Schedule Type Limits Name
  ,                                       !- Interpolate to Timestep
  24,                                     !- Hour 1
  0,                                      !- Minute 1
  20;                                     !- Value Until Time 1

OS:Schedule:Ruleset,
  {428fde56-160e-469b-a780-562d701ec15d}, !- Handle
  cooling setpoint,                       !- Name
  {37f5c1a2-82f3-459a-89db-79a79e3d8901}, !- Schedule Type Limits Name
  {a70fd853-1f18-4bdb-b503-686488589206}; !- Default Day Schedule Name

OS:Schedule:Day,
  {a70fd853-1f18-4bdb-b503-686488589206}, !- Handle
  cooling setpoint default day,           !- Name
  {37f5c1a2-82f3-459a-89db-79a79e3d8901}, !- Schedule Type Limits Name
  ,                                       !- Interpolate to Timestep
  24,                                     !- Hour 1
  0,                                      !- Minute 1
  0;                                      !- Value Until Time 1

OS:Schedule:Rule,
  {7de0118d-0ab3-4d6a-ba12-073c78b7d136}, !- Handle
  cooling setpoint allday rule,           !- Name
  {428fde56-160e-469b-a780-562d701ec15d}, !- Schedule Ruleset Name
  0,                                      !- Rule Order
  {7f3621ee-6b1e-4406-9272-1c3330f7a974}, !- Day Schedule Name
  Yes,                                    !- Apply Sunday
  Yes,                                    !- Apply Monday
  Yes,                                    !- Apply Tuesday
  Yes,                                    !- Apply Wednesday
  Yes,                                    !- Apply Thursday
  Yes,                                    !- Apply Friday
  Yes,                                    !- Apply Saturday
  DateRange,                              !- Date Specification Type
  1,                                      !- Start Month
  1,                                      !- Start Day
  12,                                     !- End Month
  31;                                     !- End Day

OS:Schedule:Day,
  {7f3621ee-6b1e-4406-9272-1c3330f7a974}, !- Handle
  cooling setpoint day,                   !- Name
  {37f5c1a2-82f3-459a-89db-79a79e3d8901}, !- Schedule Type Limits Name
  ,                                       !- Interpolate to Timestep
  24,                                     !- Hour 1
  0,                                      !- Minute 1
  25.5555555555556;                       !- Value Until Time 1

OS:ThermostatSetpoint:DualSetpoint,
  {ed345f94-f400-4a68-a6a3-29513f6cfb76}, !- Handle
  conditioned space temperature setpoint, !- Name
  {81dc7516-50ec-4d5a-b737-19ccd445148f}, !- Heating Setpoint Temperature Schedule Name
  {428fde56-160e-469b-a780-562d701ec15d}, !- Cooling Setpoint Temperature Schedule Name
  0;                                      !- Temperature Difference Between Cutout And Setpoint {deltaC}

OS:ScheduleTypeLimits,
  {37f5c1a2-82f3-459a-89db-79a79e3d8901}, !- Handle
  Temperature,                            !- Name
  ,                                       !- Lower Limit Value
  ,                                       !- Upper Limit Value
  Continuous,                             !- Numeric Type
  Temperature;                            !- Unit Type

OS:Surface,
  {fcb24555-5040-4aa4-9e64-064841e250db}, !- Handle
  Roof1,                                  !- Name
  RoofCeiling,                            !- Surface Type
  {fff18324-c948-4aee-828a-1bedf18ac2a9}, !- Construction Name
  {e63da946-e660-4cb5-a2ac-292af11f2b4f}, !- Space Name
  Outdoors,                               !- Outside Boundary Condition
  ,                                       !- Outside Boundary Condition Object
  SunExposed,                             !- Sun Exposure
  WindExposed,                            !- Wind Exposure
  ,                                       !- View Factor to Ground
  ,                                       !- Number of Vertices
  -5.95628646053898, 5.95628646053898, 2.4384, !- X,Y,Z Vertex 1 {m}
  -5.95628646053898, -5.95628646053898, 2.4384, !- X,Y,Z Vertex 2 {m}
  5.95628646053898, -5.95628646053898, 2.4384, !- X,Y,Z Vertex 3 {m}
  5.95628646053898, 5.95628646053898, 2.4384; !- X,Y,Z Vertex 4 {m}

OS:AdditionalProperties,
  {5e8b2e0a-680e-4cc4-9b39-c54ee0e589f4}, !- Handle
  {fcb24555-5040-4aa4-9e64-064841e250db}, !- Object Name
  Length,                                 !- Feature Name 1
  Double,                                 !- Feature Data Type 1
  39.083244491725608,                     !- Feature Value 1
  Width,                                  !- Feature Name 2
  Double,                                 !- Feature Data Type 2
  39.083244491725608,                     !- Feature Value 2
  Azimuth,                                !- Feature Name 3
  Integer,                                !- Feature Data Type 3
  0,                                      !- Feature Value 3
  Tilt,                                   !- Feature Name 4
  Double,                                 !- Feature Data Type 4
  0,                                      !- Feature Value 4
  SurfaceType,                            !- Feature Name 5
  String,                                 !- Feature Data Type 5
  Roof;                                   !- Feature Value 5

OS:Material,
  {408e950d-004e-4ed3-9205-ee70dd414cd0}, !- Handle
  asphalt or fiberglass shingles,         !- Name
  Rough,                                  !- Roughness
  0.00635,                                !- Thickness {m}
  0.162714,                               !- Conductivity {W/m-K}
  1121.4,                                 !- Density {kg/m3}
  1465.45,                                !- Specific Heat {J/kg-K}
  0.9,                                    !- Thermal Absorptance
  0.85,                                   !- Solar Absorptance
  0.85;                                   !- Visible Absorptance

OS:Material,
  {59fcb037-10b5-4afd-95c8-d8db8da67435}, !- Handle
  roof stud and cavity,                   !- Name
  Rough,                                  !- Roughness
  0.0889,                                 !- Thickness {m}
  0.491900632004487,                      !- Conductivity {W/m-K}
  50.32683,                               !- Density {kg/m3}
  1063.80987585548,                       !- Specific Heat {J/kg-K}
  0.9,                                    !- Thermal Absorptance
  0.7,                                    !- Solar Absorptance
  0.7;                                    !- Visible Absorptance

OS:Material,
  {858892a2-4f8c-4278-ab64-c9b332725366}, !- Handle
  gypsum board,                           !- Name
  Rough,                                  !- Roughness
  0.00254,                                !- Thickness {m}
  0.1602906,                              !- Conductivity {W/m-K}
  801,                                    !- Density {kg/m3}
  837.4,                                  !- Specific Heat {J/kg-K}
  0.9,                                    !- Thermal Absorptance
  0.6,                                    !- Solar Absorptance
  0.6;                                    !- Visible Absorptance

OS:Construction,
  {fff18324-c948-4aee-828a-1bedf18ac2a9}, !- Handle
  Roof1 construction,                     !- Name
  ,                                       !- Surface Rendering Name
  {408e950d-004e-4ed3-9205-ee70dd414cd0}, !- Layer 1
  {59fcb037-10b5-4afd-95c8-d8db8da67435}, !- Layer 2
  {858892a2-4f8c-4278-ab64-c9b332725366}; !- Layer 3

OS:Surface,
  {1591ae0b-7eaf-4645-bf99-0a729aea6e52}, !- Handle
  Wall1,                                  !- Name
  Wall,                                   !- Surface Type
  {52d33755-58e2-4621-80c7-92782ea936f6}, !- Construction Name
  {e63da946-e660-4cb5-a2ac-292af11f2b4f}, !- Space Name
  Outdoors,                               !- Outside Boundary Condition
  ,                                       !- Outside Boundary Condition Object
  SunExposed,                             !- Sun Exposure
  WindExposed,                            !- Wind Exposure
  ,                                       !- View Factor to Ground
  ,                                       !- Number of Vertices
  -29.479875, 30.4089054, 0,              !- X,Y,Z Vertex 1 {m}
  -29.479875, 30.4089054, 4.8768,         !- X,Y,Z Vertex 2 {m}
  -21.055965, 30.4089054, 4.8768,         !- X,Y,Z Vertex 3 {m}
  -21.055965, 30.4089054, 0;              !- X,Y,Z Vertex 4 {m}

OS:AdditionalProperties,
  {d7a87391-f03f-4b95-827e-abf58bf7f560}, !- Handle
  {1591ae0b-7eaf-4645-bf99-0a729aea6e52}, !- Object Name
  Length,                                 !- Feature Name 1
  Double,                                 !- Feature Data Type 1
  27.637499999999999,                     !- Feature Value 1
  Azimuth,                                !- Feature Name 2
  Integer,                                !- Feature Data Type 2
  0,                                      !- Feature Value 2
  Tilt,                                   !- Feature Name 3
  Double,                                 !- Feature Data Type 3
  90,                                     !- Feature Value 3
  SurfaceType,                            !- Feature Name 4
  String,                                 !- Feature Data Type 4
  Wall;                                   !- Feature Value 4

OS:Material,
  {c20b2996-ce18-483c-b008-034097d71597}, !- Handle
  wood siding,                            !- Name
  Rough,                                  !- Roughness
  0.0254,                                 !- Thickness {m}
  0.1024175,                              !- Conductivity {W/m-K}
  544.68,                                 !- Density {kg/m3}
  1172.36,                                !- Specific Heat {J/kg-K}
  0.9,                                    !- Thermal Absorptance
  0.7,                                    !- Solar Absorptance
  0.7;                                    !- Visible Absorptance

OS:Material,
  {a7d538b3-67dc-4ece-9ed5-61b09410fbc6}, !- Handle
  osb sheathing 0.5 in.,                  !- Name
  Rough,                                  !- Roughness
  0.0127,                                 !- Thickness {m}
  0.1154577,                              !- Conductivity {W/m-K}
  512.64,                                 !- Density {kg/m3}
  1214.23,                                !- Specific Heat {J/kg-K}
  0.9,                                    !- Thermal Absorptance
  0.7,                                    !- Solar Absorptance
  0.7;                                    !- Visible Absorptance

OS:Material,
  {5723f5fa-1c09-4b9f-904b-c83479c23d72}, !- Handle
  wall stud and cavity,                   !- Name
  Rough,                                  !- Roughness
  0.1397,                                 !- Thickness {m}
  0.0929021674204099,                     !- Conductivity {W/m-K}
  139.0536,                               !- Density {kg/m3}
  1170.23755760369,                       !- Specific Heat {J/kg-K}
  0.9,                                    !- Thermal Absorptance
  0.7,                                    !- Solar Absorptance
  0.7;                                    !- Visible Absorptance

OS:Material,
  {e05df244-0178-4440-bf02-37922c8757ef}, !- Handle
  gypsum board 1,                         !- Name
  Rough,                                  !- Roughness
  0.0127,                                 !- Thickness {m}
  0.1602906,                              !- Conductivity {W/m-K}
  801,                                    !- Density {kg/m3}
  837.4,                                  !- Specific Heat {J/kg-K}
  0.9,                                    !- Thermal Absorptance
  0.6,                                    !- Solar Absorptance
  0.6;                                    !- Visible Absorptance

OS:Construction,
  {52d33755-58e2-4621-80c7-92782ea936f6}, !- Handle
  Wall1 construction,                     !- Name
  ,                                       !- Surface Rendering Name
  {c20b2996-ce18-483c-b008-034097d71597}, !- Layer 1
  {a7d538b3-67dc-4ece-9ed5-61b09410fbc6}, !- Layer 2
  {5723f5fa-1c09-4b9f-904b-c83479c23d72}, !- Layer 3
  {e05df244-0178-4440-bf02-37922c8757ef}; !- Layer 4

OS:Surface,
  {1f3cbbc0-24e8-4925-9c83-48ea5878aac0}, !- Handle
  Wall2,                                  !- Name
  Wall,                                   !- Surface Type
  {b93dae5b-e5e7-4ee5-b54d-b304e6c1d402}, !- Construction Name
  {e63da946-e660-4cb5-a2ac-292af11f2b4f}, !- Space Name
  Outdoors,                               !- Outside Boundary Condition
  ,                                       !- Outside Boundary Condition Object
  SunExposed,                             !- Sun Exposure
  WindExposed,                            !- Wind Exposure
  ,                                       !- View Factor to Ground
  ,                                       !- Number of Vertices
  30.4089054, -26.1969504, 0,             !- X,Y,Z Vertex 1 {m}
  30.4089054, -26.1969504, 4.8768,        !- X,Y,Z Vertex 2 {m}
  30.4089054, -30.4089054, 4.8768,        !- X,Y,Z Vertex 3 {m}
  30.4089054, -30.4089054, 0;             !- X,Y,Z Vertex 4 {m}

OS:AdditionalProperties,
  {4ecdc4c2-947c-4ad0-b2fe-af403f226ed6}, !- Handle
  {1f3cbbc0-24e8-4925-9c83-48ea5878aac0}, !- Object Name
  Length,                                 !- Feature Name 1
  Double,                                 !- Feature Data Type 1
  13.81875,                               !- Feature Value 1
  Azimuth,                                !- Feature Name 2