
OS:Version,
  {1d209c92-3bb8-417f-829b-1f82f7e1a1a8}, !- Handle
  3.9.0;                                  !- Version Identifier

OS:SimulationControl,
  {d92cc824-160b-41cf-a017-603f8d699bdf}, !- Handle
  ,                                       !- Do Zone Sizing Calculation
  ,                                       !- Do System Sizing Calculation
  ,                                       !- Do Plant Sizing Calculation
  No;                                     !- Run Simulation for Sizing Periods

OS:Timestep,
  {a13a43de-bee0-4377-acd7-60853579b16a}, !- Handle
  1;                                      !- Number of Timesteps per Hour

OS:ShadowCalculation,
  {f441cae7-ce42-494b-add1-cee2e243d3be}, !- Handle
  PolygonClipping,                        !- Shading Calculation Method
  ,                                       !- Shading Calculation Update Frequency Method
  20,                                     !- Shading Calculation Update Frequency
  200,                                    !- Maximum Figures in Shadow Overlap Calculations
  ,                                       !- Polygon Clipping Algorithm
  512,                                    !- Pixel Counting Resolution
  ,                                       !- Sky Diffuse Modeling Algorithm
  No,                                     !- Output External Shading Calculation Results
  No,                                     !- Disable Self-Shading Within Shading Zone Groups
  No;                                     !- Disable Self-Shading From Shading Zone Groups to Other Zones

OS:SurfaceConvectionAlgorithm:Outside,
  {bf798c88-bd1b-4aea-98b8-4fb9afb05c6e}, !- Handle
  DOE-2;                                  !- Algorithm

OS:SurfaceConvectionAlgorithm:Inside,
  {652af297-e935-4845-861f-ff1e7c664627}, !- Handle
  TARP;                                   !- Algorithm

OS:ZoneCapacitanceMultiplier:ResearchSpecial,
  {f8c12c5c-90e6-4f4b-8f56-64fe3dac91ec}, !- Handle
  7,                                      !- Temperature Capacity Multiplier
  15,                                     !- Humidity Capacity Multiplier
  ;                                       !- Carbon Dioxide Capacity Multiplier

OS:ConvergenceLimits,
  {bd1a9f15-32cb-4b7a-ba0d-dc9a9bcb274d}, !- Handle
  0;                                      !- Minimum System Timestep {minutes}

OS:RunPeriod,
  {d99e61e1-134d-4d99-a661-7e05a3d374f3}, !- Handle
  Run Period 1,                           !- Name
  1,                                      !- Begin Month
  1,                                      !- Begin Day of Month
  12,                                     !- End Month
  31,                                     !- End Day of Month
  ,                                       !- Use Weather File Holidays and Special Days
  ,                                       !- Use Weather File Daylight Saving Period
  ,                                       !- Apply Weekend Holiday Rule
  ,                                       !- Use Weather File Rain Indicators
  ,                                       !- Use Weather File Snow Indicators
  ;                                       !- Number of Times Runperiod to be Repeated

OS:PerformancePrecisionTradeoffs,
  {8e0234de-893c-44e9-9485-92dc0408a99e}, !- Handle
  ,                                       !- Use Coil Direct Solutions
  CarrollMRT;                             !- Zone Radiant Exchange Algorithm

OS:WeatherFile,
  {f742c967-97cb-4d2e-95c5-0c9234cd80c0}, !- Handle
  Buffalo Niagara Intl Ap,                !- City
  NY,                                     !- State Province Region
  USA,                                    !- Country
  TMY3,                                   !- Data Source
  725280,                                 !- WMO Number
  42.93,                                  !- Latitude {deg}
  -78.73,                                 !- Longitude {deg}
  -5,                                     !- Time Zone {hr}
  215,                                    !- Elevation {m}
  /Users/nmoore/github/urbanopt-example-geojson-project/example_project/weather/USA_NY_Buffalo-Greater.Buffalo.Intl.AP.725280_TMY3.epw, !- Url
  6B50E0FF,                               !- Checksum
  ,                                       !- Start Date Actual Year
  Sunday;                                 !- Start Day of Week

OS:YearDescription,
  {dadab0c5-11d7-4cd3-a0ae-fbc896793af0}, !- Handle
  2007,                                   !- Calendar Year
  ,                                       !- Day of Week for Start Day
  ;                                       !- Is Leap Year

OS:Site,
  {46d71f76-a87a-4760-ab6b-f34ddb81cf06}, !- Handle
  Buffalo Niagara Intl Ap_NY,             !- Name
  42.93,                                  !- Latitude {deg}
  -78.73,                                 !- Longitude {deg}
  -5,                                     !- Time Zone {hr}
  215,                                    !- Elevation {m}
  Suburbs,                                !- Terrain
  Yes;                                    !- Keep Site Location Information

OS:RunPeriodControl:DaylightSavingTime,
  {9e3cfe4d-20c1-49dd-bfbb-640730037b72}, !- Handle
  Mar 12,                                 !- Start Date
  Nov 5;                                  !- End Date

OS:Site:GroundTemperature:Shallow,
  {bc0116ab-f365-4d21-b89d-fb5e5276e34e}, !- Handle
  4.30207395723828,                       !- January Surface Ground Temperature {C}
  2.29327249652502,                       !- February Surface Ground Temperature {C}
  2.13240047156047,                       !- March Surface Ground Temperature {C}
  3.08567940719286,                       !- April Surface Ground Temperature {C}
  6.91256312497526,                       !- May Surface Ground Temperature {C}
  10.7216195949507,                       !- June Surface Ground Temperature {C}
  14.0238679822574,                       !- July Surface Ground Temperature {C}
  16.1157611184724,                       !- August Surface Ground Temperature {C}
  16.2934789303462,                       !- September Surface Ground Temperature {C}
  14.5920754632847,                       !- October Surface Ground Temperature {C}
  11.374036348653,                        !- November Surface Ground Temperature {C}
  7.68182621661674;                       !- December Surface Ground Temperature {C}

OS:ThermalZone,
  {a8009384-b72f-43fb-bc23-f9b11a8bace7}, !- Handle
  conditioned space,                      !- Name
  1,                                      !- Multiplier
  ,                                       !- Ceiling Height {m}
  346.03186535424,                        !- Volume {m3}
  ,                                       !- Floor Area {m2}
  ,                                       !- Zone Inside Convection Algorithm
  ,                                       !- Zone Outside Convection Algorithm
  ,                                       !- Zone Conditioning Equipment List Name
  {e8c8d513-1a54-4c02-8fab-bfa1de6e073b}, !- Zone Air Inlet Port List
  {1049338e-9aef-453c-b172-ef77628a839e}, !- Zone Air Exhaust Port List
  {320cec0a-3c79-404d-94b0-591920a368f8}, !- Zone Air Node Name
  {c8349892-5abf-4ce7-8f82-f2a4060958ea}, !- Zone Return Air Port List
  ,                                       !- Primary Daylighting Control Name
  ,                                       !- Fraction of Zone Controlled by Primary Daylighting Control
  ,                                       !- Secondary Daylighting Control Name
  ,                                       !- Fraction of Zone Controlled by Secondary Daylighting Control
  ,                                       !- Illuminance Map Name
  ,                                       !- Group Rendering Name
  {02b48958-856a-4285-9059-d27769025eed}, !- Thermostat Name
  No;                                     !- Use Ideal Air Loads

OS:Node,
  {0aad8ef4-7d1f-4e4b-96a1-aa54429e0660}, !- Handle
  Node 1,                                 !- Name
  {320cec0a-3c79-404d-94b0-591920a368f8}, !- Inlet Port
  ;                                       !- Outlet Port

OS:Connection,
  {320cec0a-3c79-404d-94b0-591920a368f8}, !- Handle
  {a8009384-b72f-43fb-bc23-f9b11a8bace7}, !- Source Object
  11,                                     !- Outlet Port
  {0aad8ef4-7d1f-4e4b-96a1-aa54429e0660}, !- Target Object
  2;                                      !- Inlet Port

OS:PortList,
  {e8c8d513-1a54-4c02-8fab-bfa1de6e073b}, !- Handle
  {a8009384-b72f-43fb-bc23-f9b11a8bace7}, !- HVAC Component
  {b9188725-ecfc-412d-ba71-a17c15f51205}; !- Port 1

OS:PortList,
  {1049338e-9aef-453c-b172-ef77628a839e}, !- Handle
  {a8009384-b72f-43fb-bc23-f9b11a8bace7}; !- HVAC Component

OS:PortList,
  {c8349892-5abf-4ce7-8f82-f2a4060958ea}, !- Handle
  {a8009384-b72f-43fb-bc23-f9b11a8bace7}, !- HVAC Component
  {13eb564b-d8e1-42d5-b022-3b199b6ce948}; !- Port 1

OS:Sizing:Zone,
  {ae14c159-3d44-489c-8a20-b7c696c32195}, !- Handle
  {a8009384-b72f-43fb-bc23-f9b11a8bace7}, !- Zone or ZoneList Name
  SupplyAirTemperature,                   !- Zone Cooling Design Supply Air Temperature Input Method
  14,                                     !- Zone Cooling Design Supply Air Temperature {C}
  11.11,                                  !- Zone Cooling Design Supply Air Temperature Difference {deltaC}
  SupplyAirTemperature,                   !- Zone Heating Design Supply Air Temperature Input Method
  40,                                     !- Zone Heating Design Supply Air Temperature {C}
  11.11,                                  !- Zone Heating Design Supply Air Temperature Difference {deltaC}
  0.0085,                                 !- Zone Cooling Design Supply Air Humidity Ratio {kg-H2O/kg-air}
  0.008,                                  !- Zone Heating Design Supply Air Humidity Ratio {kg-H2O/kg-air}
  ,                                       !- Zone Heating Sizing Factor
  ,                                       !- Zone Cooling Sizing Factor
  DesignDay,                              !- Cooling Design Air Flow Method
  ,                                       !- Cooling Design Air Flow Rate {m3/s}
  ,                                       !- Cooling Minimum Air Flow per Zone Floor Area {m3/s-m2}
  ,                                       !- Cooling Minimum Air Flow {m3/s}
  ,                                       !- Cooling Minimum Air Flow Fraction
  DesignDay,                              !- Heating Design Air Flow Method
  ,                                       !- Heating Design Air Flow Rate {m3/s}
  ,                                       !- Heating Maximum Air Flow per Zone Floor Area {m3/s-m2}
  ,                                       !- Heating Maximum Air Flow {m3/s}
  ,                                       !- Heating Maximum Air Flow Fraction
  No,                                     !- Account for Dedicated Outdoor Air System
  NeutralSupplyAir,                       !- Dedicated Outdoor Air System Control Strategy
  autosize,                               !- Dedicated Outdoor Air Low Setpoint Temperature for Design {C}
  autosize,                               !- Dedicated Outdoor Air High Setpoint Temperature for Design {C}
  Sensible Load Only No Latent Load,      !- Zone Load Sizing Method
  HumidityRatioDifference,                !- Zone Latent Cooling Design Supply Air Humidity Ratio Input Method
  ,                                       !- Zone Dehumidification Design Supply Air Humidity Ratio {kgWater/kgDryAir}
  0.005,                                  !- Zone Cooling Design Supply Air Humidity Ratio Difference {kgWater/kgDryAir}
  HumidityRatioDifference,                !- Zone Latent Heating Design Supply Air Humidity Ratio Input Method
  ,                                       !- Zone Humidification Design Supply Air Humidity Ratio {kgWater/kgDryAir}
  0.005,                                  !- Zone Humidification Design Supply Air Humidity Ratio Difference {kgWater/kgDryAir}
  ,                                       !- Zone Humidistat Dehumidification Set Point Schedule Name
  ,                                       !- Zone Humidistat Humidification Set Point Schedule Name
  ,                                       !- Design Zone Air Distribution Effectiveness in Cooling Mode
  ,                                       !- Design Zone Air Distribution Effectiveness in Heating Mode
  ,                                       !- Design Zone Secondary Recirculation Fraction {dimensionless}
  ,                                       !- Design Minimum Zone Ventilation Efficiency {dimensionless}
  Coincident;                             !- Sizing Option

OS:ZoneHVAC:EquipmentList,
  {fc9681c1-9932-4500-af0a-06f9792ce6df}, !- Handle
  Zone HVAC Equipment List 1,             !- Name
  {a8009384-b72f-43fb-bc23-f9b11a8bace7}, !- Thermal Zone
  ,                                       !- Load Distribution Scheme
  {af62e5bf-475d-4804-ae14-7617faa89b67}, !- Zone Equipment 1
  1,                                      !- Zone Equipment Cooling Sequence 1
  1,                                      !- Zone Equipment Heating or No-Load Sequence 1
  {9629ee2e-793e-44a3-a2c3-47b2c5e9240d}, !- Zone Equipment Sequential Cooling Fraction Schedule Name 1
  {63aca674-738c-449b-95a0-8bb27427fc82}; !- Zone Equipment Sequential Heating Fraction Schedule Name 1

OS:AdditionalProperties,
  {4217357f-7d7b-487a-890f-eeccce55da86}, !- Handle
  {a8009384-b72f-43fb-bc23-f9b11a8bace7}, !- Object Name
  ObjectType,                             !- Feature Name 1
  String,                                 !- Feature Data Type 1
  conditioned space;                      !- Feature Value 1

OS:Space,
  {11cca550-24ad-4bed-bfd4-52df294348b9}, !- Handle
  conditioned space 1,                    !- Name
  ,                                       !- Space Type Name
  ,                                       !- Default Construction Set Name
  ,                                       !- Default Schedule Set Name
  ,                                       !- Direction of Relative North {deg}
  ,                                       !- X Origin {m}
  ,                                       !- Y Origin {m}
  ,                                       !- Z Origin {m}
  ,                                       !- Building Story Name
  {a8009384-b72f-43fb-bc23-f9b11a8bace7}, !- Thermal Zone Name
  ,                                       !- Part of Total Floor Area
  ,                                       !- Design Specification Outdoor Air Object Name
  ,                                       !- Building Unit Name
  346.03186535424;                        !- Volume {m3}

OS:Schedule:Ruleset,
  {411c2418-83dd-4c55-bc91-c9c59a883f79}, !- Handle
  heating setpoint,                       !- Name
  {b8fe758d-002d-4f7a-a586-4814e8ab6b1b}, !- Schedule Type Limits Name
  {058a8911-8ec9-46d5-817b-1d8e6a45399e}; !- Default Day Schedule Name

OS:Schedule:Day,
  {058a8911-8ec9-46d5-817b-1d8e6a45399e}, !- Handle
  heating setpoint default day,           !- Name
  {b8fe758d-002d-4f7a-a586-4814e8ab6b1b}, !- Schedule Type Limits Name
  ,                                       !- Interpolate to Timestep
  24,                                     !- Hour 1
  0,                                      !- Minute 1
  0;                                      !- Value Until Time 1

OS:Schedule:Rule,
  {fd72e7dd-242f-46d4-b846-5f28e4b6df01}, !- Handle
  heating setpoint allday rule,           !- Name
  {411c2418-83dd-4c55-bc91-c9c59a883f79}, !- Schedule Ruleset Name
  0,                                      !- Rule Order
  {979b18b7-69b9-4291-945f-840e4679296d}, !- Day Schedule Name
  Yes,                                    !- Apply Sunday
  Yes,                                    !- Apply Monday
  Yes,                                    !- Apply Tuesday
  Yes,                                    !- Apply Wednesday
  Yes,                                    !- Apply Thursday
  Yes,                                    !- Apply Friday
  Yes,                                    !- Apply Saturday
  DateRange,                              !- Date Specification Type
  1,                                      !- Start Month
  1,                                      !- Start Day
  12,                                     !- End Month
  31;                                     !- End Day

OS:Schedule:Day,
  {979b18b7-69b9-4291-945f-840e4679296d}, !- Handle
  heating setpoint day,                   !- Name
  {b8fe758d-002d-4f7a-a586-4814e8ab6b1b}, !- Schedule Type Limits Name
  ,                                       !- Interpolate to Timestep
  24,                                     !- Hour 1
  0,                                      !- Minute 1
  20;                                     !- Value Until Time 1

OS:Schedule:Ruleset,
  {258b244c-4a3e-4694-88db-d0db025c606c}, !- Handle
  cooling setpoint,                       !- Name
  {b8fe758d-002d-4f7a-a586-4814e8ab6b1b}, !- Schedule Type Limits Name
  {1f1d4533-fbc4-4dcf-9174-ea45e5bb3dfc}; !- Default Day Schedule Name

OS:Schedule:Day,
  {1f1d4533-fbc4-4dcf-9174-ea45e5bb3dfc}, !- Handle
  cooling setpoint default day,           !- Name
  {b8fe758d-002d-4f7a-a586-4814e8ab6b1b}, !- Schedule Type Limits Name
  ,                                       !- Interpolate to Timestep
  24,                                     !- Hour 1
  0,                                      !- Minute 1
  0;                                      !- Value Until Time 1

OS:Schedule:Rule,
  {1fd85f36-3bbd-42ba-8fe3-cc670369694b}, !- Handle
  cooling setpoint allday rule,           !- Name
  {258b244c-4a3e-4694-88db-d0db025c606c}, !- Schedule Ruleset Name
  0,                                      !- Rule Order
  {67643bf5-c50f-494a-b276-ad32ec7dc570}, !- Day Schedule Name
  Yes,                                    !- Apply Sunday
  Yes,                                    !- Apply Monday
  Yes,                                    !- Apply Tuesday
  Yes,                                    !- Apply Wednesday
  Yes,                                    !- Apply Thursday
  Yes,                                    !- Apply Friday
  Yes,                                    !- Apply Saturday
  DateRange,                              !- Date Specification Type
  1,                                      !- Start Month
  1,                                      !- Start Day
  12,                                     !- End Month
  31;                                     !- End Day

OS:Schedule:Day,
  {67643bf5-c50f-494a-b276-ad32ec7dc570}, !- Handle
  cooling setpoint day,                   !- Name
  {b8fe758d-002d-4f7a-a586-4814e8ab6b1b}, !- Schedule Type Limits Name
  ,                                       !- Interpolate to Timestep
  24,                                     !- Hour 1
  0,                                      !- Minute 1
  25.5555555555556;                       !- Value Until Time 1

OS:ThermostatSetpoint:DualSetpoint,
  {02b48958-856a-4285-9059-d27769025eed}, !- Handle
  conditioned space temperature setpoint, !- Name
  {411c2418-83dd-4c55-bc91-c9c59a883f79}, !- Heating Setpoint Temperature Schedule Name
  {258b244c-4a3e-4694-88db-d0db025c606c}, !- Cooling Setpoint Temperature Schedule Name
  0;                                      !- Temperature Difference Between Cutout And Setpoint {deltaC}

OS:ScheduleTypeLimits,
  {b8fe758d-002d-4f7a-a586-4814e8ab6b1b}, !- Handle
  Temperature,                            !- Name
  ,                                       !- Lower Limit Value
  ,                                       !- Upper Limit Value
  Continuous,                             !- Numeric Type
  Temperature;                            !- Unit Type

OS:Surface,
  {66929f7f-7e53-4e8f-864f-92f53a0de8d0}, !- Handle
  Roof1,                                  !- Name
  RoofCeiling,                            !- Surface Type
  {6f3e683a-d0a9-494a-a502-3c59efe582a3}, !- Construction Name
  {261e5796-42ee-463e-9555-9d6aabf7573c}, !- Space Name
  Outdoors,                               !- Outside Boundary Condition
  ,                                       !- Outside Boundary Condition Object
  SunExposed,                             !- Sun Exposure
  WindExposed,                            !- Wind Exposure
  ,                                       !- View Factor to Ground
  ,                                       !- Number of Vertices
  -25.0448166683368, 35.3267874683368, 2.4384, !- X,Y,Z Vertex 1 {m}
  -25.0448166683368, 27.3603626312596, 6.42161241853859, !- X,Y,Z Vertex 2 {m}
  -16.1380829316632, 27.3603626312596, 6.42161241853859, !- X,Y,Z Vertex 3 {m}
  -16.1380829316632, 35.3267874683368, 2.4384; !- X,Y,Z Vertex 4 {m}

OS:AdditionalProperties,
  {82f7fbab-1787-4846-a6b6-453c5251f0f0}, !- Handle
  {66929f7f-7e53-4e8f-864f-92f53a0de8d0}, !- Object Name
  Length,                                 !- Feature Name 1
  Double,                                 !- Feature Data Type 1
  29.221567377538118,                     !- Feature Value 1
  Width,                                  !- Feature Name 2
  Double,                                 !- Feature Data Type 2
  29.221567377538118,                     !- Feature Value 2
  Azimuth,                                !- Feature Name 3
  Integer,                                !- Feature Data Type 3
  0,                                      !- Feature Value 3
  Tilt,                                   !- Feature Name 4
  Double,                                 !- Feature Data Type 4
  0.5,                                    !- Feature Value 4
  SurfaceType,                            !- Feature Name 5
  String,                                 !- Feature Data Type 5
  Roof;                                   !- Feature Value 5

OS:ThermalZone,
  {3cca1377-a7e7-47ef-a532-4716f407ca01}, !- Handle
  attic - vented,                         !- Name
  1,                                      !- Multiplier
  ,                                       !- Ceiling Height {m}
  126.002877704413,                       !- Volume {m3}
  ,                                       !- Floor Area {m2}
  ,                                       !- Zone Inside Convection Algorithm
  ,                                       !- Zone Outside Convection Algorithm
  ,                                       !- Zone Conditioning Equipment List Name
  {35e7bf52-395d-4a3d-a7a9-20753411ecd8}, !- Zone Air Inlet Port List
  {923cb469-d8d2-401d-983a-baea7d196b25}, !- Zone Air Exhaust Port List
  {879999af-e437-4153-b4b9-9c5d42282a2b}, !- Zone Air Node Name
  {25fa07f1-538d-4935-a479-cfc05db88302}, !- Zone Return Air Port List
  ,                                       !- Primary Daylighting Control Name
  ,                                       !- Fraction of Zone Controlled by Primary Daylighting Control
  ,                                       !- Secondary Daylighting Control Name
  ,                                       !- Fraction of Zone Controlled by Secondary Daylighting Control
  ,                                       !- Illuminance Map Name
  ,                                       !- Group Rendering Name
  ,                                       !- Thermostat Name
  No;                                     !- Use Ideal Air Loads

OS:Node,
  {be5becf8-2e7f-40be-b370-fd48931891f0}, !- Handle
  Node 2,                                 !- Name
  {879999af-e437-4153-b4b9-9c5d42282a2b}, !- Inlet Port
  ;                                       !- Outlet Port

OS:Connection,
  {879999af-e437-4153-b4b9-9c5d42282a2b}, !- Handle
  {3cca1377-a7e7-47ef-a532-4716f407ca01}, !- Source Object
  11,                                     !- Outlet Port
  {be5becf8-2e7f-40be-b370-fd48931891f0}, !- Target Object
  2;                                      !- Inlet Port

OS:PortList,
  {35e7bf52-395d-4a3d-a7a9-20753411ecd8}, !- Handle
  {3cca1377-a7e7-47ef-a532-4716f407ca01}; !- HVAC Component

OS:PortList,
  {923cb469-d8d2-401d-983a-baea7d196b25}, !- Handle
  {3cca1377-a7e7-47ef-a532-4716f407ca01}; !- HVAC Component

OS:PortList,
  {25fa07f1-538d-4935-a479-cfc05db88302}, !- Handle
  {3cca1377-a7e7-47ef-a532-4716f407ca01}; !- HVAC Component

OS:Sizing:Zone,
  {9fbb5598-a652-459c-b5e0-b350cc216a31}, !- Handle
  {3cca1377-a7e7-47ef-a532-4716f407ca01}, !- Zone or ZoneList Name
  SupplyAirTemperature,                   !- Zone Cooling Design Supply Air Temperature Input Method
  14,                                     !- Zone Cooling Design Supply Air Temperature {C}
  11.11,                                  !- Zone Cooling Design Supply Air Temperature Difference {deltaC}
  SupplyAirTemperature,                   !- Zone Heating Design Supply Air Temperature Input Method
  40,                                     !- Zone Heating Design Supply Air Temperature {C}
  11.11,                                  !- Zone Heating Design Supply Air Temperature Difference {deltaC}
  0.0085,                                 !- Zone Cooling Design Supply Air Humidity Ratio {kg-H2O/kg-air}
  0.008,                                  !- Zone Heating Design Supply Air Humidity Ratio {kg-H2O/kg-air}
  ,                                       !- Zone Heating Sizing Factor
  ,                                       !- Zone Cooling Sizing Factor
  DesignDay,                              !- Cooling Design Air Flow Method
  ,                                       !- Cooling Design Air Flow Rate {m3/s}
  ,                                       !- Cooling Minimum Air Flow per Zone Floor Area {m3/s-m2}
  ,                                       !- Cooling Minimum Air Flow {m3/s}
  ,                                       !- Cooling Minimum Air Flow Fraction
  DesignDay,                              !- Heating Design Air Flow Method
  ,                                       !- Heating Design Air Flow Rate {m3/s}
  ,                                       !- Heating Maximum Air Flow per Zone Floor Area {m3/s-m2}
  ,                                       !- Heating Maximum Air Flow {m3/s}
  ,                                       !- Heating Maximum Air Flow Fraction
  No,                                     !- Account for Dedicated Outdoor Air System
  NeutralSupplyAir,                       !- Dedicated Outdoor Air System Control Strategy
  autosize,                               !- Dedicated Outdoor Air Low Setpoint Temperature for Design {C}
  autosize,                               !- Dedicated Outdoor Air High Setpoint Temperature for Design {C}
  Sensible Load Only No Latent Load,      !- Zone Load Sizing Method
  HumidityRatioDifference,                !- Zone Latent Cooling Design Supply Air Humidity Ratio Input Method
  ,                                       !- Zone Dehumidification Design Supply Air Humidity Ratio {kgWater/kgDryAir}
  0.005,                                  !- Zone Cooling Design Supply Air Humidity Ratio Difference {kgWater/kgDryAir}
  HumidityRatioDifference,                !- Zone Latent Heating Design Supply Air Humidity Ratio Input Method
  ,                                       !- Zone Humidification Design Supply Air Humidity Ratio {kgWater/kgDryAir}
  0.005,                                  !- Zone Humidification Design Supply Air Humidity Ratio Difference {kgWater/kgDryAir}
  ,                                       !- Zone Humidistat Dehumidification Set Point Schedule Name
  ,                                       !- Zone Humidistat Humidification Set Point Schedule Name
  ,                                       !- Design Zone Air Distribution Effectiveness in Cooling Mode
  ,                                       !- Design Zone Air Distribution Effectiveness in Heating Mode
  ,                                       !- Design Zone Secondary Recirculation Fraction {dimensionless}
  ,                                       !- Design Minimum Zone Ventilation Efficiency {dimensionless}
  Coincident;                             !- Sizing Option

OS:ZoneHVAC:EquipmentList,
  {dcee0b57-98af-45e3-9bc8-562b4dde2ff7}, !- Handle
  Zone HVAC Equipment List 2,             !- Name
  {3cca1377-a7e7-47ef-a532-4716f407ca01}; !- Thermal Zone

OS:AdditionalProperties,
  {7e04a00a-2433-45f4-ac65-49c8c1e866fa}, !- Handle
  {3cca1377-a7e7-47ef-a532-4716f407ca01}, !- Object Name
  ObjectType,                             !- Feature Name 1
  String,                                 !- Feature Data Type 1
  attic - vented;                         !- Feature Value 1

OS:Space,
  {261e5796-42ee-463e-9555-9d6aabf7573c}, !- Handle
  attic - vented 1,                       !- Name
  ,                                       !- Space Type Name
  ,                                       !- Default Construction Set Name
  ,                                       !- Default Schedule Set Name
  ,                                       !- Direction of Relative North {deg}
  ,                                       !- X Origin {m}
  ,                                       !- Y Origin {m}
  ,                                       !- Z Origin {m}
  ,                                       !- Building Story Name
  {3cca1377-a7e7-47ef-a532-4716f407ca01}, !- Thermal Zone Name
  ,                                       !- Part of Total Floor Area
  ,                                       !- Design Specification Outdoor Air Object Name
  ,                                       !- Building Unit Name
  126.002877704413;                       !- Volume {m3}

OS:Material,
  {8bb28ac0-24a8-4db5-8c59-fda4cf76fd98}, !- Handle
  asphalt or fiberglass shingles,         !- Name
  Rough,                                  !- Roughness
  0.00635,                                !- Thickness {m}
  0.162714,                               !- Conductivity {W/m-K}
  1121.4,                                 !- Density {kg/m3}
  1465.45,                                !- Specific Heat {J/kg-K}
  0.9,                                    !- Thermal Absorptance
  0.85,                                   !- Solar Absorptance