
OS:Version,
  {01c36e91-2cea-4fce-87d8-360515a7df10}, !- Handle
  3.10.0;                                 !- Version Identifier

OS:SimulationControl,
  {3a98e179-f9cd-49cd-811d-b7631fc83f7d}, !- Handle
  ,                                       !- Do Zone Sizing Calculation
  ,                                       !- Do System Sizing Calculation
  ,                                       !- Do Plant Sizing Calculation
  No;                                     !- Run Simulation for Sizing Periods

OS:Timestep,
  {927d7dce-4ce6-4361-92c9-2bf7a1ed0958}, !- Handle
  1;                                      !- Number of Timesteps per Hour

OS:ShadowCalculation,
  {6517bc99-06b8-4175-a1aa-d4f7c58e21d0}, !- Handle
  PolygonClipping,                        !- Shading Calculation Method
  ,                                       !- Shading Calculation Update Frequency Method
  20,                                     !- Shading Calculation Update Frequency
  200,                                    !- Maximum Figures in Shadow Overlap Calculations
  ,                                       !- Polygon Clipping Algorithm
  512,                                    !- Pixel Counting Resolution
  ,                                       !- Sky Diffuse Modeling Algorithm
  No,                                     !- Output External Shading Calculation Results
  No,                                     !- Disable Self-Shading Within Shading Zone Groups
  No;                                     !- Disable Self-Shading From Shading Zone Groups to Other Zones

OS:SurfaceConvectionAlgorithm:Outside,
  {818f2152-abb7-4ead-b8ea-7f4331fdd423}, !- Handle
  DOE-2;                                  !- Algorithm

OS:SurfaceConvectionAlgorithm:Inside,
  {c6f0089b-020c-497b-941a-36cffbe3d1f1}, !- Handle
  TARP;                                   !- Algorithm

OS:ZoneCapacitanceMultiplier:ResearchSpecial,
  {299cd2a4-7511-41eb-8442-cf14c1b51c2f}, !- Handle
  7,                                      !- Temperature Capacity Multiplier
  15,                                     !- Humidity Capacity Multiplier
  ;                                       !- Carbon Dioxide Capacity Multiplier

OS:ConvergenceLimits,
  {ae1e11b6-4384-46bc-8d4d-7b2876751ac3}, !- Handle
  0;                                      !- Minimum System Timestep {minutes}

OS:RunPeriod,
  {6897c0e1-a7a6-436f-88b7-9b35dba9c7ca}, !- Handle
  Run Period 1,                           !- Name
  1,                                      !- Begin Month
  1,                                      !- Begin Day of Month
  12,                                     !- End Month
  31,                                     !- End Day of Month
  ,                                       !- Use Weather File Holidays and Special Days
  ,                                       !- Use Weather File Daylight Saving Period
  ,                                       !- Apply Weekend Holiday Rule
  ,                                       !- Use Weather File Rain Indicators
  ,                                       !- Use Weather File Snow Indicators
  ;                                       !- Number of Times Runperiod to be Repeated

OS:PerformancePrecisionTradeoffs,
  {af487356-da85-4044-ada0-240d4144e854}, !- Handle
  ,                                       !- Use Coil Direct Solutions
  CarrollMRT;                             !- Zone Radiant Exchange Algorithm

OS:WeatherFile,
  {95b6db86-cbf9-41db-a431-9947335c4784}, !- Handle
  Buffalo Niagara Intl Ap,                !- City
  NY,                                     !- State Province Region
  USA,                                    !- Country
  TMY3,                                   !- Data Source
  725280,                                 !- WMO Number
  42.93,                                  !- Latitude {deg}
  -78.73,                                 !- Longitude {deg}
  -5,                                     !- Time Zone {hr}
  215,                                    !- Elevation {m}
  /Users/nmoore/github/urbanopt-example-geojson-project/example_project/weather/USA_NY_Buffalo-Greater.Buffalo.Intl.AP.725280_TMY3.epw, !- Url
  6B50E0FF,                               !- Checksum
  ,                                       !- Start Date Actual Year
  Sunday;                                 !- Start Day of Week

OS:YearDescription,
  {e502c54b-e085-4588-85a5-0a7793629468}, !- Handle
  2007,                                   !- Calendar Year
  ,                                       !- Day of Week for Start Day
  ;                                       !- Is Leap Year

OS:Site,
  {f0244a56-53be-404a-96c4-aa79c3cd2765}, !- Handle
  Buffalo Niagara Intl Ap_NY,             !- Name
  42.93,                                  !- Latitude {deg}
  -78.73,                                 !- Longitude {deg}
  -5,                                     !- Time Zone {hr}
  215,                                    !- Elevation {m}
  Suburbs,                                !- Terrain
  Yes;                                    !- Keep Site Location Information

OS:RunPeriodControl:DaylightSavingTime,
  {ef0d2246-c1d4-4137-a5e5-5f1b7d04b8aa}, !- Handle
  Mar 12,                                 !- Start Date
  Nov 5;                                  !- End Date

OS:Site:GroundTemperature:Shallow,
  {c1c49517-ffa7-4247-96ef-5846aa3b0091}, !- Handle
  4.30207395723828,                       !- January Surface Ground Temperature {C}
  2.29327249652502,                       !- February Surface Ground Temperature {C}
  2.13240047156047,                       !- March Surface Ground Temperature {C}
  3.08567940719286,                       !- April Surface Ground Temperature {C}
  6.91256312497526,                       !- May Surface Ground Temperature {C}
  10.7216195949507,                       !- June Surface Ground Temperature {C}
  14.0238679822574,                       !- July Surface Ground Temperature {C}
  16.1157611184724,                       !- August Surface Ground Temperature {C}
  16.2934789303462,                       !- September Surface Ground Temperature {C}
  14.5920754632847,                       !- October Surface Ground Temperature {C}
  11.374036348653,                        !- November Surface Ground Temperature {C}
  7.68182621661674;                       !- December Surface Ground Temperature {C}

OS:ThermalZone,
  {013be194-5fd6-4cea-8d4d-32ffc8db304e}, !- Handle
  conditioned space,                      !- Name
  1,                                      !- Multiplier
  ,                                       !- Ceiling Height {m}
  346.03186535424,                        !- Volume {m3}
  ,                                       !- Floor Area {m2}
  ,                                       !- Zone Inside Convection Algorithm
  ,                                       !- Zone Outside Convection Algorithm
  ,                                       !- Zone Conditioning Equipment List Name
  {63cbc472-6bbf-41d6-b2e2-4165b6e0d3ea}, !- Zone Air Inlet Port List
  {92e0d0ce-eeb8-4abe-a7bc-b9c92af9de89}, !- Zone Air Exhaust Port List
  {d29ea18b-97b6-43bc-9019-092c28f1421e}, !- Zone Air Node Name
  {f7070c79-3c59-4b8c-9696-a2ff141bc7f8}, !- Zone Return Air Port List
  ,                                       !- Primary Daylighting Control Name
  ,                                       !- Fraction of Zone Controlled by Primary Daylighting Control
  ,                                       !- Secondary Daylighting Control Name
  ,                                       !- Fraction of Zone Controlled by Secondary Daylighting Control
  ,                                       !- Illuminance Map Name
  ,                                       !- Group Rendering Name
  {a95220b7-447a-4cfd-8bd8-1287b1135821}, !- Thermostat Name
  No;                                     !- Use Ideal Air Loads

OS:Node,
  {0c39d572-274b-4b61-a0bb-243f7e3f4c90}, !- Handle
  Node 1,                                 !- Name
  {d29ea18b-97b6-43bc-9019-092c28f1421e}, !- Inlet Port
  ;                                       !- Outlet Port

OS:Connection,
  {d29ea18b-97b6-43bc-9019-092c28f1421e}, !- Handle
  {013be194-5fd6-4cea-8d4d-32ffc8db304e}, !- Source Object
  11,                                     !- Outlet Port
  {0c39d572-274b-4b61-a0bb-243f7e3f4c90}, !- Target Object
  2;                                      !- Inlet Port

OS:PortList,
  {63cbc472-6bbf-41d6-b2e2-4165b6e0d3ea}, !- Handle
  {013be194-5fd6-4cea-8d4d-32ffc8db304e}, !- HVAC Component
  {0772814c-82da-4896-95e8-e5893e4335ae}; !- Port 1

OS:PortList,
  {92e0d0ce-eeb8-4abe-a7bc-b9c92af9de89}, !- Handle
  {013be194-5fd6-4cea-8d4d-32ffc8db304e}; !- HVAC Component

OS:PortList,
  {f7070c79-3c59-4b8c-9696-a2ff141bc7f8}, !- Handle
  {013be194-5fd6-4cea-8d4d-32ffc8db304e}, !- HVAC Component
  {836bf5f7-607b-4295-b24f-c6a2ca06bc16}; !- Port 1

OS:Sizing:Zone,
  {ebdc0b83-fe98-4998-8cc0-091ee615f6b3}, !- Handle
  {013be194-5fd6-4cea-8d4d-32ffc8db304e}, !- Zone or ZoneList Name
  SupplyAirTemperature,                   !- Zone Cooling Design Supply Air Temperature Input Method
  14,                                     !- Zone Cooling Design Supply Air Temperature {C}
  11.11,                                  !- Zone Cooling Design Supply Air Temperature Difference {deltaC}
  SupplyAirTemperature,                   !- Zone Heating Design Supply Air Temperature Input Method
  40,                                     !- Zone Heating Design Supply Air Temperature {C}
  11.11,                                  !- Zone Heating Design Supply Air Temperature Difference {deltaC}
  0.0085,                                 !- Zone Cooling Design Supply Air Humidity Ratio {kg-H2O/kg-air}
  0.008,                                  !- Zone Heating Design Supply Air Humidity Ratio {kg-H2O/kg-air}
  ,                                       !- Zone Heating Sizing Factor
  ,                                       !- Zone Cooling Sizing Factor
  DesignDay,                              !- Cooling Design Air Flow Method
  ,                                       !- Cooling Design Air Flow Rate {m3/s}
  ,                                       !- Cooling Minimum Air Flow per Zone Floor Area {m3/s-m2}
  ,                                       !- Cooling Minimum Air Flow {m3/s}
  ,                                       !- Cooling Minimum Air Flow Fraction
  DesignDay,                              !- Heating Design Air Flow Method
  ,                                       !- Heating Design Air Flow Rate {m3/s}
  ,                                       !- Heating Maximum Air Flow per Zone Floor Area {m3/s-m2}
  ,                                       !- Heating Maximum Air Flow {m3/s}
  ,                                       !- Heating Maximum Air Flow Fraction
  No,                                     !- Account for Dedicated Outdoor Air System
  NeutralSupplyAir,                       !- Dedicated Outdoor Air System Control Strategy
  autosize,                               !- Dedicated Outdoor Air Low Setpoint Temperature for Design {C}
  autosize,                               !- Dedicated Outdoor Air High Setpoint Temperature for Design {C}
  Sensible Load Only No Latent Load,      !- Zone Load Sizing Method
  HumidityRatioDifference,                !- Zone Latent Cooling Design Supply Air Humidity Ratio Input Method
  ,                                       !- Zone Dehumidification Design Supply Air Humidity Ratio {kgWater/kgDryAir}
  0.005,                                  !- Zone Cooling Design Supply Air Humidity Ratio Difference {kgWater/kgDryAir}
  HumidityRatioDifference,                !- Zone Latent Heating Design Supply Air Humidity Ratio Input Method
  ,                                       !- Zone Humidification Design Supply Air Humidity Ratio {kgWater/kgDryAir}
  0.005,                                  !- Zone Humidification Design Supply Air Humidity Ratio Difference {kgWater/kgDryAir}
  ,                                       !- Zone Humidistat Dehumidification Set Point Schedule Name
  ,                                       !- Zone Humidistat Humidification Set Point Schedule Name
  ,                                       !- Design Zone Air Distribution Effectiveness in Cooling Mode
  ,                                       !- Design Zone Air Distribution Effectiveness in Heating Mode
  ,                                       !- Design Zone Secondary Recirculation Fraction {dimensionless}
  ,                                       !- Design Minimum Zone Ventilation Efficiency {dimensionless}
  Coincident;                             !- Sizing Option

OS:ZoneHVAC:EquipmentList,
  {8a8fdbaa-d2bc-4c24-86f0-691899a69a7f}, !- Handle
  Zone HVAC Equipment List 1,             !- Name
  {013be194-5fd6-4cea-8d4d-32ffc8db304e}, !- Thermal Zone
  ,                                       !- Load Distribution Scheme
  {e5951c59-a48a-4b8c-a5a5-9e84a26364f3}, !- Zone Equipment 1
  1,                                      !- Zone Equipment Cooling Sequence 1
  1,                                      !- Zone Equipment Heating or No-Load Sequence 1
  {a0dfd0a5-4e08-47d2-b765-277119ca1a95}, !- Zone Equipment Sequential Cooling Fraction Schedule Name 1
  {092c1d6d-f3bb-45b2-b5bb-47d3a2ad8917}; !- Zone Equipment Sequential Heating Fraction Schedule Name 1

OS:AdditionalProperties,
  {05dfe131-0b50-4f31-9673-58370f957c14}, !- Handle
  {013be194-5fd6-4cea-8d4d-32ffc8db304e}, !- Object Name
  ObjectType,                             !- Feature Name 1
  String,                                 !- Feature Data Type 1
  conditioned space;                      !- Feature Value 1

OS:Space,
  {a9d5d328-5a66-4844-8710-3c3d8e21c619}, !- Handle
  conditioned space 1,                    !- Name
  ,                                       !- Space Type Name
  ,                                       !- Default Construction Set Name
  ,                                       !- Default Schedule Set Name
  ,                                       !- Direction of Relative North {deg}
  ,                                       !- X Origin {m}
  ,                                       !- Y Origin {m}
  ,                                       !- Z Origin {m}
  ,                                       !- Building Story Name
  {013be194-5fd6-4cea-8d4d-32ffc8db304e}, !- Thermal Zone Name
  ,                                       !- Part of Total Floor Area
  ,                                       !- Design Specification Outdoor Air Object Name
  ,                                       !- Building Unit Name
  346.03186535424;                        !- Volume {m3}

OS:Schedule:Ruleset,
  {9c42b457-1397-49ef-a4b2-3f3aa09a8423}, !- Handle
  heating setpoint,                       !- Name
  {eac55b84-9568-47f3-aa93-0754fb5d0b37}, !- Schedule Type Limits Name
  {67caff3f-157d-4bb4-84a2-730294d648bd}; !- Default Day Schedule Name

OS:Schedule:Day,
  {67caff3f-157d-4bb4-84a2-730294d648bd}, !- Handle
  heating setpoint default day,           !- Name
  {eac55b84-9568-47f3-aa93-0754fb5d0b37}, !- Schedule Type Limits Name
  ,                                       !- Interpolate to Timestep
  24,                                     !- Hour 1
  0,                                      !- Minute 1
  0;                                      !- Value Until Time 1

OS:Schedule:Rule,
  {f4197b2e-938a-4fda-81d8-682ed81561a0}, !- Handle
  heating setpoint allday rule,           !- Name
  {9c42b457-1397-49ef-a4b2-3f3aa09a8423}, !- Schedule Ruleset Name
  0,                                      !- Rule Order
  {a279884a-041c-4c9a-8d78-52f4b69b0e23}, !- Day Schedule Name
  Yes,                                    !- Apply Sunday
  Yes,                                    !- Apply Monday
  Yes,                                    !- Apply Tuesday
  Yes,                                    !- Apply Wednesday
  Yes,                                    !- Apply Thursday
  Yes,                                    !- Apply Friday
  Yes,                                    !- Apply Saturday
  DateRange,                              !- Date Specification Type
  1,                                      !- Start Month
  1,                                      !- Start Day
  12,                                     !- End Month
  31;                                     !- End Day

OS:Schedule:Day,
  {a279884a-041c-4c9a-8d78-52f4b69b0e23}, !- Handle
  heating setpoint day,                   !- Name
  {eac55b84-9568-47f3-aa93-0754fb5d0b37}, !- Schedule Type Limits Name
  ,                                       !- Interpolate to Timestep
  24,                                     !- Hour 1
  0,                                      !- Minute 1
  20;                                     !- Value Until Time 1

OS:Schedule:Ruleset,
  {f922ade0-1709-460d-acad-dfc78101f9e0}, !- Handle
  cooling setpoint,                       !- Name
  {eac55b84-9568-47f3-aa93-0754fb5d0b37}, !- Schedule Type Limits Name
  {450d2e54-578f-4ed9-ac2c-007537298e2a}; !- Default Day Schedule Name

OS:Schedule:Day,
  {450d2e54-578f-4ed9-ac2c-007537298e2a}, !- Handle
  cooling setpoint default day,           !- Name
  {eac55b84-9568-47f3-aa93-0754fb5d0b37}, !- Schedule Type Limits Name
  ,                                       !- Interpolate to Timestep
  24,                                     !- Hour 1
  0,                                      !- Minute 1
  0;                                      !- Value Until Time 1

OS:Schedule:Rule,
  {604bfcb1-b11e-4284-aa3f-068cbf6df0ef}, !- Handle
  cooling setpoint allday rule,           !- Name
  {f922ade0-1709-460d-acad-dfc78101f9e0}, !- Schedule Ruleset Name
  0,                                      !- Rule Order
  {e05eb1ed-8d2d-45ca-8051-790659b7c302}, !- Day Schedule Name
  Yes,                                    !- Apply Sunday
  Yes,                                    !- Apply Monday
  Yes,                                    !- Apply Tuesday
  Yes,                                    !- Apply Wednesday
  Yes,                                    !- Apply Thursday
  Yes,                                    !- Apply Friday
  Yes,                                    !- Apply Saturday
  DateRange,                              !- Date Specification Type
  1,                                      !- Start Month
  1,                                      !- Start Day
  12,                                     !- End Month
  31;                                     !- End Day

OS:Schedule:Day,
  {e05eb1ed-8d2d-45ca-8051-790659b7c302}, !- Handle
  cooling setpoint day,                   !- Name
  {eac55b84-9568-47f3-aa93-0754fb5d0b37}, !- Schedule Type Limits Name
  ,                                       !- Interpolate to Timestep
  24,                                     !- Hour 1
  0,                                      !- Minute 1
  25.5555555555556;                       !- Value Until Time 1

OS:ThermostatSetpoint:DualSetpoint,
  {a95220b7-447a-4cfd-8bd8-1287b1135821}, !- Handle
  conditioned space temperature setpoint, !- Name
  {9c42b457-1397-49ef-a4b2-3f3aa09a8423}, !- Heating Setpoint Temperature Schedule Name
  {f922ade0-1709-460d-acad-dfc78101f9e0}, !- Cooling Setpoint Temperature Schedule Name
  0;                                      !- Temperature Difference Between Cutout And Setpoint {deltaC}

OS:ScheduleTypeLimits,
  {eac55b84-9568-47f3-aa93-0754fb5d0b37}, !- Handle
  Temperature,                            !- Name
  ,                                       !- Lower Limit Value
  ,                                       !- Upper Limit Value
  Continuous,                             !- Numeric Type
  Temperature;                            !- Unit Type

OS:Surface,
  {0f76ec58-cbe9-4e8e-b111-b3e40e7b9c7d}, !- Handle
  Roof1,                                  !- Name
  RoofCeiling,                            !- Surface Type
  {dac3f2a8-48f8-47fe-b9a5-ff060e0c9c1b}, !- Construction Name
  {e3a832db-552c-4ac9-b45e-277c9f6bc4da}, !- Space Name
  Outdoors,                               !- Outside Boundary Condition
  ,                                       !- Outside Boundary Condition Object
  SunExposed,                             !- Sun Exposure
  WindExposed,                            !- Wind Exposure
  ,                                       !- View Factor to Ground
  ,                                       !- Number of Vertices
  -25.0448166683368, 35.3267874683368, 2.4384, !- X,Y,Z Vertex 1 {m}
  -25.0448166683368, 27.3603626312596, 6.42161241853859, !- X,Y,Z Vertex 2 {m}
  -16.1380829316632, 27.3603626312596, 6.42161241853859, !- X,Y,Z Vertex 3 {m}
  -16.1380829316632, 35.3267874683368, 2.4384; !- X,Y,Z Vertex 4 {m}

OS:AdditionalProperties,
  {41ffe0ec-218a-4cf2-8085-14ad9eae25ad}, !- Handle
  {0f76ec58-cbe9-4e8e-b111-b3e40e7b9c7d}, !- Object Name
  Length,                                 !- Feature Name 1
  Double,                                 !- Feature Data Type 1
  29.221567377538118,                     !- Feature Value 1
  Width,                                  !- Feature Name 2
  Double,                                 !- Feature Data Type 2
  29.221567377538118,                     !- Feature Value 2
  Azimuth,                                !- Feature Name 3
  Integer,                                !- Feature Data Type 3
  0,                                      !- Feature Value 3
  Tilt,                                   !- Feature Name 4
  Double,                                 !- Feature Data Type 4
  0.5,                                    !- Feature Value 4
  SurfaceType,                            !- Feature Name 5
  String,                                 !- Feature Data Type 5
  Roof;                                   !- Feature Value 5

OS:ThermalZone,
  {c23c81f9-1f84-43be-bf16-6edd25c152fd}, !- Handle
  attic - vented,                         !- Name
  1,                                      !- Multiplier
  ,                                       !- Ceiling Height {m}
  126.003218814318,                       !- Volume {m3}
  ,                                       !- Floor Area {m2}
  ,                                       !- Zone Inside Convection Algorithm
  ,                                       !- Zone Outside Convection Algorithm
  ,                                       !- Zone Conditioning Equipment List Name
  {523364f8-f607-48db-8c48-4f0d653f3484}, !- Zone Air Inlet Port List
  {32870083-8e40-4a20-88e0-244b15de4334}, !- Zone Air Exhaust Port List
  {f3613001-9cdf-4f5f-87a2-1753a12e6392}, !- Zone Air Node Name
  {16b3f8b6-962c-482d-8ce9-a6e046a8baeb}, !- Zone Return Air Port List
  ,                                       !- Primary Daylighting Control Name
  ,                                       !- Fraction of Zone Controlled by Primary Daylighting Control
  ,                                       !- Secondary Daylighting Control Name
  ,                                       !- Fraction of Zone Controlled by Secondary Daylighting Control
  ,                                       !- Illuminance Map Name
  ,                                       !- Group Rendering Name
  ,                                       !- Thermostat Name
  No;                                     !- Use Ideal Air Loads

OS:Node,
  {88a449d2-9cc6-4a4b-a256-39e2ec27d905}, !- Handle
  Node 2,                                 !- Name
  {f3613001-9cdf-4f5f-87a2-1753a12e6392}, !- Inlet Port
  ;                                       !- Outlet Port

OS:Connection,
  {f3613001-9cdf-4f5f-87a2-1753a12e6392}, !- Handle
  {c23c81f9-1f84-43be-bf16-6edd25c152fd}, !- Source Object
  11,                                     !- Outlet Port
  {88a449d2-9cc6-4a4b-a256-39e2ec27d905}, !- Target Object
  2;                                      !- Inlet Port

OS:PortList,
  {523364f8-f607-48db-8c48-4f0d653f3484}, !- Handle
  {c23c81f9-1f84-43be-bf16-6edd25c152fd}; !- HVAC Component

OS:PortList,
  {32870083-8e40-4a20-88e0-244b15de4334}, !- Handle
  {c23c81f9-1f84-43be-bf16-6edd25c152fd}; !- HVAC Component

OS:PortList,
  {16b3f8b6-962c-482d-8ce9-a6e046a8baeb}, !- Handle
  {c23c81f9-1f84-43be-bf16-6edd25c152fd}; !- HVAC Component

OS:Sizing:Zone,
  {b46461d9-27eb-4bd6-b182-caa186cee18a}, !- Handle
  {c23c81f9-1f84-43be-bf16-6edd25c152fd}, !- Zone or ZoneList Name
  SupplyAirTemperature,                   !- Zone Cooling Design Supply Air Temperature Input Method
  14,                                     !- Zone Cooling Design Supply Air Temperature {C}
  11.11,                                  !- Zone Cooling Design Supply Air Temperature Difference {deltaC}
  SupplyAirTemperature,                   !- Zone Heating Design Supply Air Temperature Input Method
  40,                                     !- Zone Heating Design Supply Air Temperature {C}
  11.11,                                  !- Zone Heating Design Supply Air Temperature Difference {deltaC}
  0.0085,                                 !- Zone Cooling Design Supply Air Humidity Ratio {kg-H2O/kg-air}
  0.008,                                  !- Zone Heating Design Supply Air Humidity Ratio {kg-H2O/kg-air}
  ,                                       !- Zone Heating Sizing Factor
  ,                                       !- Zone Cooling Sizing Factor
  DesignDay,                              !- Cooling Design Air Flow Method
  ,                                       !- Cooling Design Air Flow Rate {m3/s}
  ,                                       !- Cooling Minimum Air Flow per Zone Floor Area {m3/s-m2}
  ,                                       !- Cooling Minimum Air Flow {m3/s}
  ,                                       !- Cooling Minimum Air Flow Fraction
  DesignDay,                              !- Heating Design Air Flow Method
  ,                                       !- Heating Design Air Flow Rate {m3/s}
  ,                                       !- Heating Maximum Air Flow per Zone Floor Area {m3/s-m2}
  ,                                       !- Heating Maximum Air Flow {m3/s}
  ,                                       !- Heating Maximum Air Flow Fraction
  No,                                     !- Account for Dedicated Outdoor Air System
  NeutralSupplyAir,                       !- Dedicated Outdoor Air System Control Strategy
  autosize,                               !- Dedicated Outdoor Air Low Setpoint Temperature for Design {C}
  autosize,                               !- Dedicated Outdoor Air High Setpoint Temperature for Design {C}
  Sensible Load Only No Latent Load,      !- Zone Load Sizing Method
  HumidityRatioDifference,                !- Zone Latent Cooling Design Supply Air Humidity Ratio Input Method
  ,                                       !- Zone Dehumidification Design Supply Air Humidity Ratio {kgWater/kgDryAir}
  0.005,                                  !- Zone Cooling Design Supply Air Humidity Ratio Difference {kgWater/kgDryAir}
  HumidityRatioDifference,                !- Zone Latent Heating Design Supply Air Humidity Ratio Input Method
  ,                                       !- Zone Humidification Design Supply Air Humidity Ratio {kgWater/kgDryAir}
  0.005,                                  !- Zone Humidification Design Supply Air Humidity Ratio Difference {kgWater/kgDryAir}
  ,                                       !- Zone Humidistat Dehumidification Set Point Schedule Name
  ,                                       !- Zone Humidistat Humidification Set Point Schedule Name
  ,                                       !- Design Zone Air Distribution Effectiveness in Cooling Mode
  ,                                       !- Design Zone Air Distribution Effectiveness in Heating Mode
  ,                                       !- Design Zone Secondary Recirculation Fraction {dimensionless}
  ,                                       !- Design Minimum Zone Ventilation Efficiency {dimensionless}
  Coincident;                             !- Sizing Option

OS:ZoneHVAC:EquipmentList,
  {39ea6b82-9ca5-4f00-a05e-e1ea851fd5b2}, !- Handle
  Zone HVAC Equipment List 2,             !- Name
  {c23c81f9-1f84-43be-bf16-6edd25c152fd}; !- Thermal Zone

OS:AdditionalProperties,
  {8b8982f0-90ef-44fe-8b85-e4f64cf1aebd}, !- Handle
  {c23c81f9-1f84-43be-bf16-6edd25c152fd}, !- Object Name
  ObjectType,                             !- Feature Name 1
  String,                                 !- Feature Data Type 1
  attic - vented;                         !- Feature Value 1

OS:Space,
  {e3a832db-552c-4ac9-b45e-277c9f6bc4da}, !- Handle
  attic - vented 1,                       !- Name
  ,                                       !- Space Type Name
  ,                                       !- Default Construction Set Name
  ,                                       !- Default Schedule Set Name
  ,                                       !- Direction of Relative North {deg}
  ,                                       !- X Origin {m}
  ,                                       !- Y Origin {m}
  ,                                       !- Z Origin {m}
  ,                                       !- Building Story Name
  {c23c81f9-1f84-43be-bf16-6edd25c152fd}, !- Thermal Zone Name
  ,                                       !- Part of Total Floor Area
  ,                                       !- Design Specification Outdoor Air Object Name
  ,                                       !- Building Unit Name
  126.003218814318;                       !- Volume {m3}

OS:Material,
  {02d46659-03fb-4489-b0ae-e112f20dc172}, !- Handle
  asphalt or fiberglass shingles,         !- Name
  Rough,                                  !- Roughness
  0.00635,                                !- Thickness {m}
  0.162714,                               !- Conductivity {W/m-K}
  1121.4,                                 !- Density {kg/m3}
  1465.45,                                !- Specific Heat {J/kg-K}
  0.9,                                    !- Thermal Absorptance
  0.85,                                   !- Solar Absorptance