
OS:Version,
  {23c595b3-b7b8-45b8-9034-ad245c11239b}, !- Handle
  3.10.0;                                 !- Version Identifier

OS:SimulationControl,
  {0f8a9b22-88c2-45a9-9dc8-1eb42db03cdb}, !- Handle
  ,                                       !- Do Zone Sizing Calculation
  ,                                       !- Do System Sizing Calculation
  ,                                       !- Do Plant Sizing Calculation
  No;                                     !- Run Simulation for Sizing Periods

OS:Timestep,
  {08b8282f-8b3f-4f6d-be17-f5882a18389c}, !- Handle
  1;                                      !- Number of Timesteps per Hour

OS:ShadowCalculation,
  {c924ac7a-3195-4b0a-8d01-8b7b7d49634e}, !- Handle
  PolygonClipping,                        !- Shading Calculation Method
  ,                                       !- Shading Calculation Update Frequency Method
  20,                                     !- Shading Calculation Update Frequency
  200,                                    !- Maximum Figures in Shadow Overlap Calculations
  ,                                       !- Polygon Clipping Algorithm
  512,                                    !- Pixel Counting Resolution
  ,                                       !- Sky Diffuse Modeling Algorithm
  No,                                     !- Output External Shading Calculation Results
  No,                                     !- Disable Self-Shading Within Shading Zone Groups
  No;                                     !- Disable Self-Shading From Shading Zone Groups to Other Zones

OS:SurfaceConvectionAlgorithm:Outside,
  {45fc0337-2a83-4660-9d6c-d5409919504f}, !- Handle
  DOE-2;                                  !- Algorithm

OS:SurfaceConvectionAlgorithm:Inside,
  {e3a51051-0c77-4e0b-88f9-eac4b94191a7}, !- Handle
  TARP;                                   !- Algorithm

OS:ZoneCapacitanceMultiplier:ResearchSpecial,
  {3f8f98d6-940e-4da5-af7d-0ba2595fca9f}, !- Handle
  7,                                      !- Temperature Capacity Multiplier
  15,                                     !- Humidity Capacity Multiplier
  ;                                       !- Carbon Dioxide Capacity Multiplier

OS:ConvergenceLimits,
  {fc80a4f8-c985-4c89-84ef-a34b84215de6}, !- Handle
  0;                                      !- Minimum System Timestep {minutes}

OS:RunPeriod,
  {de18df18-5e79-43c3-bac6-4f893b00c483}, !- Handle
  Run Period 1,                           !- Name
  1,                                      !- Begin Month
  1,                                      !- Begin Day of Month
  12,                                     !- End Month
  31,                                     !- End Day of Month
  ,                                       !- Use Weather File Holidays and Special Days
  ,                                       !- Use Weather File Daylight Saving Period
  ,                                       !- Apply Weekend Holiday Rule
  ,                                       !- Use Weather File Rain Indicators
  ,                                       !- Use Weather File Snow Indicators
  ;                                       !- Number of Times Runperiod to be Repeated

OS:PerformancePrecisionTradeoffs,
  {6556ae3a-b00b-44be-be6b-82fa719b102c}, !- Handle
  ,                                       !- Use Coil Direct Solutions
  CarrollMRT;                             !- Zone Radiant Exchange Algorithm

OS:WeatherFile,
  {91e119c9-7e52-4356-92b0-a4b2c451becc}, !- Handle
  Buffalo Niagara Intl Ap,                !- City
  NY,                                     !- State Province Region
  USA,                                    !- Country
  TMY3,                                   !- Data Source
  725280,                                 !- WMO Number
  42.93,                                  !- Latitude {deg}
  -78.73,                                 !- Longitude {deg}
  -5,                                     !- Time Zone {hr}
  215,                                    !- Elevation {m}
  /Users/nmoore/github/urbanopt-example-geojson-project/example_project/weather/USA_NY_Buffalo-Greater.Buffalo.Intl.AP.725280_TMY3.epw, !- Url
  6B50E0FF,                               !- Checksum
  ,                                       !- Start Date Actual Year
  Sunday;                                 !- Start Day of Week

OS:YearDescription,
  {808c21bf-35e4-4cb9-bd73-9034dd73f804}, !- Handle
  2007,                                   !- Calendar Year
  ,                                       !- Day of Week for Start Day
  ;                                       !- Is Leap Year

OS:Site,
  {bc91a57e-0939-4314-983e-9c746c880783}, !- Handle
  Buffalo Niagara Intl Ap_NY,             !- Name
  42.93,                                  !- Latitude {deg}
  -78.73,                                 !- Longitude {deg}
  -5,                                     !- Time Zone {hr}
  215,                                    !- Elevation {m}
  Suburbs,                                !- Terrain
  Yes;                                    !- Keep Site Location Information

OS:RunPeriodControl:DaylightSavingTime,
  {fcf132de-f43d-4e81-bb34-a82a5f4c94e7}, !- Handle
  Mar 12,                                 !- Start Date
  Nov 5;                                  !- End Date

OS:Site:GroundTemperature:Shallow,
  {10d39281-da1d-4600-b1a3-67907152adaf}, !- Handle
  4.30207395723828,                       !- January Surface Ground Temperature {C}
  2.29327249652502,                       !- February Surface Ground Temperature {C}
  2.13240047156047,                       !- March Surface Ground Temperature {C}
  3.08567940719286,                       !- April Surface Ground Temperature {C}
  6.91256312497526,                       !- May Surface Ground Temperature {C}
  10.7216195949507,                       !- June Surface Ground Temperature {C}
  14.0238679822574,                       !- July Surface Ground Temperature {C}
  16.1157611184724,                       !- August Surface Ground Temperature {C}
  16.2934789303462,                       !- September Surface Ground Temperature {C}
  14.5920754632847,                       !- October Surface Ground Temperature {C}
  11.374036348653,                        !- November Surface Ground Temperature {C}
  7.68182621661674;                       !- December Surface Ground Temperature {C}

OS:ThermalZone,
  {ac989a54-55a6-4bb9-af24-7a042932102e}, !- Handle
  conditioned space,                      !- Name
  1,                                      !- Multiplier
  ,                                       !- Ceiling Height {m}
  346.03186535424,                        !- Volume {m3}
  ,                                       !- Floor Area {m2}
  ,                                       !- Zone Inside Convection Algorithm
  ,                                       !- Zone Outside Convection Algorithm
  ,                                       !- Zone Conditioning Equipment List Name
  {de7082db-31ac-4787-bb71-980a93f83177}, !- Zone Air Inlet Port List
  {edccdc4a-fdda-46be-bb5f-e19c214b00ee}, !- Zone Air Exhaust Port List
  {33d15156-5021-4851-be9d-d13855762556}, !- Zone Air Node Name
  {fa21b5c8-bea7-4cfe-9054-c68963d6fb2a}, !- Zone Return Air Port List
  ,                                       !- Primary Daylighting Control Name
  ,                                       !- Fraction of Zone Controlled by Primary Daylighting Control
  ,                                       !- Secondary Daylighting Control Name
  ,                                       !- Fraction of Zone Controlled by Secondary Daylighting Control
  ,                                       !- Illuminance Map Name
  ,                                       !- Group Rendering Name
  {ebab5af3-9519-476e-8d61-30934d636699}, !- Thermostat Name
  No;                                     !- Use Ideal Air Loads

OS:Node,
  {2f7f141d-2edd-4408-89b5-ad22b7a95111}, !- Handle
  Node 1,                                 !- Name
  {33d15156-5021-4851-be9d-d13855762556}, !- Inlet Port
  ;                                       !- Outlet Port

OS:Connection,
  {33d15156-5021-4851-be9d-d13855762556}, !- Handle
  {ac989a54-55a6-4bb9-af24-7a042932102e}, !- Source Object
  11,                                     !- Outlet Port
  {2f7f141d-2edd-4408-89b5-ad22b7a95111}, !- Target Object
  2;                                      !- Inlet Port

OS:PortList,
  {de7082db-31ac-4787-bb71-980a93f83177}, !- Handle
  {ac989a54-55a6-4bb9-af24-7a042932102e}, !- HVAC Component
  {b8d0e200-f178-4fb4-bddf-a9f46efaf9ee}; !- Port 1

OS:PortList,
  {edccdc4a-fdda-46be-bb5f-e19c214b00ee}, !- Handle
  {ac989a54-55a6-4bb9-af24-7a042932102e}; !- HVAC Component

OS:PortList,
  {fa21b5c8-bea7-4cfe-9054-c68963d6fb2a}, !- Handle
  {ac989a54-55a6-4bb9-af24-7a042932102e}, !- HVAC Component
  {8e066e62-9a37-448e-9f9f-88d7ac1f332a}; !- Port 1

OS:Sizing:Zone,
  {d562c42c-42b6-40cb-9519-c3c2b1bcf6d5}, !- Handle
  {ac989a54-55a6-4bb9-af24-7a042932102e}, !- Zone or ZoneList Name
  SupplyAirTemperature,                   !- Zone Cooling Design Supply Air Temperature Input Method
  14,                                     !- Zone Cooling Design Supply Air Temperature {C}
  11.11,                                  !- Zone Cooling Design Supply Air Temperature Difference {deltaC}
  SupplyAirTemperature,                   !- Zone Heating Design Supply Air Temperature Input Method
  40,                                     !- Zone Heating Design Supply Air Temperature {C}
  11.11,                                  !- Zone Heating Design Supply Air Temperature Difference {deltaC}
  0.0085,                                 !- Zone Cooling Design Supply Air Humidity Ratio {kg-H2O/kg-air}
  0.008,                                  !- Zone Heating Design Supply Air Humidity Ratio {kg-H2O/kg-air}
  ,                                       !- Zone Heating Sizing Factor
  ,                                       !- Zone Cooling Sizing Factor
  DesignDay,                              !- Cooling Design Air Flow Method
  ,                                       !- Cooling Design Air Flow Rate {m3/s}
  ,                                       !- Cooling Minimum Air Flow per Zone Floor Area {m3/s-m2}
  ,                                       !- Cooling Minimum Air Flow {m3/s}
  ,                                       !- Cooling Minimum Air Flow Fraction
  DesignDay,                              !- Heating Design Air Flow Method
  ,                                       !- Heating Design Air Flow Rate {m3/s}
  ,                                       !- Heating Maximum Air Flow per Zone Floor Area {m3/s-m2}
  ,                                       !- Heating Maximum Air Flow {m3/s}
  ,                                       !- Heating Maximum Air Flow Fraction
  No,                                     !- Account for Dedicated Outdoor Air System
  NeutralSupplyAir,                       !- Dedicated Outdoor Air System Control Strategy
  autosize,                               !- Dedicated Outdoor Air Low Setpoint Temperature for Design {C}
  autosize,                               !- Dedicated Outdoor Air High Setpoint Temperature for Design {C}
  Sensible Load Only No Latent Load,      !- Zone Load Sizing Method
  HumidityRatioDifference,                !- Zone Latent Cooling Design Supply Air Humidity Ratio Input Method
  ,                                       !- Zone Dehumidification Design Supply Air Humidity Ratio {kgWater/kgDryAir}
  0.005,                                  !- Zone Cooling Design Supply Air Humidity Ratio Difference {kgWater/kgDryAir}
  HumidityRatioDifference,                !- Zone Latent Heating Design Supply Air Humidity Ratio Input Method
  ,                                       !- Zone Humidification Design Supply Air Humidity Ratio {kgWater/kgDryAir}
  0.005,                                  !- Zone Humidification Design Supply Air Humidity Ratio Difference {kgWater/kgDryAir}
  ,                                       !- Zone Humidistat Dehumidification Set Point Schedule Name
  ,                                       !- Zone Humidistat Humidification Set Point Schedule Name
  ,                                       !- Design Zone Air Distribution Effectiveness in Cooling Mode
  ,                                       !- Design Zone Air Distribution Effectiveness in Heating Mode
  ,                                       !- Design Zone Secondary Recirculation Fraction {dimensionless}
  ,                                       !- Design Minimum Zone Ventilation Efficiency {dimensionless}
  Coincident;                             !- Sizing Option

OS:ZoneHVAC:EquipmentList,
  {1ead96de-3f60-4319-b4be-6d0149ebdc0e}, !- Handle
  Zone HVAC Equipment List 1,             !- Name
  {ac989a54-55a6-4bb9-af24-7a042932102e}, !- Thermal Zone
  ,                                       !- Load Distribution Scheme
  {e92501d0-8a27-4d76-b20e-583093e5aec2}, !- Zone Equipment 1
  1,                                      !- Zone Equipment Cooling Sequence 1
  1,                                      !- Zone Equipment Heating or No-Load Sequence 1
  {74324f20-fee9-4cb8-b6a9-e5c9c5a930d7}, !- Zone Equipment Sequential Cooling Fraction Schedule Name 1
  {3b4c934e-f54a-425e-b32d-38ee153b379c}; !- Zone Equipment Sequential Heating Fraction Schedule Name 1

OS:AdditionalProperties,
  {8524bf1a-60ac-477e-8204-86603a9a861f}, !- Handle
  {ac989a54-55a6-4bb9-af24-7a042932102e}, !- Object Name
  ObjectType,                             !- Feature Name 1
  String,                                 !- Feature Data Type 1
  conditioned space;                      !- Feature Value 1

OS:Space,
  {12eff7b4-4af6-4610-b430-6d45faca96fe}, !- Handle
  conditioned space 1,                    !- Name
  ,                                       !- Space Type Name
  ,                                       !- Default Construction Set Name
  ,                                       !- Default Schedule Set Name
  ,                                       !- Direction of Relative North {deg}
  ,                                       !- X Origin {m}
  ,                                       !- Y Origin {m}
  ,                                       !- Z Origin {m}
  ,                                       !- Building Story Name
  {ac989a54-55a6-4bb9-af24-7a042932102e}, !- Thermal Zone Name
  ,                                       !- Part of Total Floor Area
  ,                                       !- Design Specification Outdoor Air Object Name
  ,                                       !- Building Unit Name
  346.03186535424;                        !- Volume {m3}

OS:Schedule:Ruleset,
  {1e3b4e51-652f-4214-a261-1b659a814e65}, !- Handle
  heating setpoint,                       !- Name
  {2cd5a25e-97aa-49b5-b9ad-b5a14aef0d56}, !- Schedule Type Limits Name
  {25cb34b3-857b-452b-a903-17d29518ec51}; !- Default Day Schedule Name

OS:Schedule:Day,
  {25cb34b3-857b-452b-a903-17d29518ec51}, !- Handle
  heating setpoint default day,           !- Name
  {2cd5a25e-97aa-49b5-b9ad-b5a14aef0d56}, !- Schedule Type Limits Name
  ,                                       !- Interpolate to Timestep
  24,                                     !- Hour 1
  0,                                      !- Minute 1
  0;                                      !- Value Until Time 1

OS:Schedule:Rule,
  {10f8a24a-3c39-4ff5-bdbc-5d886f1d5e67}, !- Handle
  heating setpoint allday rule,           !- Name
  {1e3b4e51-652f-4214-a261-1b659a814e65}, !- Schedule Ruleset Name
  0,                                      !- Rule Order
  {a7a9b485-0fcd-4888-baa6-a5731f55ffdc}, !- Day Schedule Name
  Yes,                                    !- Apply Sunday
  Yes,                                    !- Apply Monday
  Yes,                                    !- Apply Tuesday
  Yes,                                    !- Apply Wednesday
  Yes,                                    !- Apply Thursday
  Yes,                                    !- Apply Friday
  Yes,                                    !- Apply Saturday
  DateRange,                              !- Date Specification Type
  1,                                      !- Start Month
  1,                                      !- Start Day
  12,                                     !- End Month
  31;                                     !- End Day

OS:Schedule:Day,
  {a7a9b485-0fcd-4888-baa6-a5731f55ffdc}, !- Handle
  heating setpoint day,                   !- Name
  {2cd5a25e-97aa-49b5-b9ad-b5a14aef0d56}, !- Schedule Type Limits Name
  ,                                       !- Interpolate to Timestep
  24,                                     !- Hour 1
  0,                                      !- Minute 1
  20;                                     !- Value Until Time 1

OS:Schedule:Ruleset,
  {bd333c11-bba9-43d8-b92a-de6a99af0867}, !- Handle
  cooling setpoint,                       !- Name
  {2cd5a25e-97aa-49b5-b9ad-b5a14aef0d56}, !- Schedule Type Limits Name
  {4a6d3c28-1f2d-4e99-93ce-0d83b529f35e}; !- Default Day Schedule Name

OS:Schedule:Day,
  {4a6d3c28-1f2d-4e99-93ce-0d83b529f35e}, !- Handle
  cooling setpoint default day,           !- Name
  {2cd5a25e-97aa-49b5-b9ad-b5a14aef0d56}, !- Schedule Type Limits Name
  ,                                       !- Interpolate to Timestep
  24,                                     !- Hour 1
  0,                                      !- Minute 1
  0;                                      !- Value Until Time 1

OS:Schedule:Rule,
  {1a908e53-bcad-4aff-80a6-e7b070320d3f}, !- Handle
  cooling setpoint allday rule,           !- Name
  {bd333c11-bba9-43d8-b92a-de6a99af0867}, !- Schedule Ruleset Name
  0,                                      !- Rule Order
  {1d9f10d8-3349-429a-9a93-a1ce230638a4}, !- Day Schedule Name
  Yes,                                    !- Apply Sunday
  Yes,                                    !- Apply Monday
  Yes,                                    !- Apply Tuesday
  Yes,                                    !- Apply Wednesday
  Yes,                                    !- Apply Thursday
  Yes,                                    !- Apply Friday
  Yes,                                    !- Apply Saturday
  DateRange,                              !- Date Specification Type
  1,                                      !- Start Month
  1,                                      !- Start Day
  12,                                     !- End Month
  31;                                     !- End Day

OS:Schedule:Day,
  {1d9f10d8-3349-429a-9a93-a1ce230638a4}, !- Handle
  cooling setpoint day,                   !- Name
  {2cd5a25e-97aa-49b5-b9ad-b5a14aef0d56}, !- Schedule Type Limits Name
  ,                                       !- Interpolate to Timestep
  24,                                     !- Hour 1
  0,                                      !- Minute 1
  25.5555555555556;                       !- Value Until Time 1

OS:ThermostatSetpoint:DualSetpoint,
  {ebab5af3-9519-476e-8d61-30934d636699}, !- Handle
  conditioned space temperature setpoint, !- Name
  {1e3b4e51-652f-4214-a261-1b659a814e65}, !- Heating Setpoint Temperature Schedule Name
  {bd333c11-bba9-43d8-b92a-de6a99af0867}, !- Cooling Setpoint Temperature Schedule Name
  0;                                      !- Temperature Difference Between Cutout And Setpoint {deltaC}

OS:ScheduleTypeLimits,
  {2cd5a25e-97aa-49b5-b9ad-b5a14aef0d56}, !- Handle
  Temperature,                            !- Name
  ,                                       !- Lower Limit Value
  ,                                       !- Upper Limit Value
  Continuous,                             !- Numeric Type
  Temperature;                            !- Unit Type

OS:Surface,
  {a2c9359c-1f4a-46fa-9252-101c4ec4b8cd}, !- Handle
  Wall1,                                  !- Name
  Wall,                                   !- Surface Type
  {2b8b5c6b-44ba-4d17-ab32-79fb6e6ab11a}, !- Construction Name
  {12eff7b4-4af6-4610-b430-6d45faca96fe}, !- Space Name
  Outdoors,                               !- Outside Boundary Condition
  ,                                       !- Outside Boundary Condition Object
  SunExposed,                             !- Sun Exposure
  WindExposed,                            !- Wind Exposure
  ,                                       !- View Factor to Ground
  ,                                       !- Number of Vertices
  -4.95193308575712, 6.96193691424288, 0.6096, !- X,Y,Z Vertex 1 {m}
  -4.95193308575712, 6.96193691424288, 3.048, !- X,Y,Z Vertex 2 {m}
  6.96193691424288, 6.96193691424288, 3.048, !- X,Y,Z Vertex 3 {m}
  6.96193691424288, 6.96193691424288, 0.6096; !- X,Y,Z Vertex 4 {m}

OS:AdditionalProperties,
  {1c2dbcad-59a6-460d-8cb8-25eaefc1bf93}, !- Handle
  {a2c9359c-1f4a-46fa-9252-101c4ec4b8cd}, !- Object Name
  Length,                                 !- Feature Name 1
  Double,                                 !- Feature Data Type 1
  39.087499999999999,                     !- Feature Value 1
  Azimuth,                                !- Feature Name 2
  Integer,                                !- Feature Data Type 2
  0,                                      !- Feature Value 2
  Tilt,                                   !- Feature Name 3
  Double,                                 !- Feature Data Type 3
  90,                                     !- Feature Value 3
  SurfaceType,                            !- Feature Name 4
  String,                                 !- Feature Data Type 4
  Wall;                                   !- Feature Value 4

OS:Material,
  {6564b3fa-a68b-4dac-8bb7-8ff490b56ba1}, !- Handle
  wood siding,                            !- Name
  Rough,                                  !- Roughness
  0.0254,                                 !- Thickness {m}
  0.1024175,                              !- Conductivity {W/m-K}
  544.68,                                 !- Density {kg/m3}
  1172.36,                                !- Specific Heat {J/kg-K}
  0.9,                                    !- Thermal Absorptance
  0.7,                                    !- Solar Absorptance
  0.7;                                    !- Visible Absorptance

OS:Material,
  {b7f7addd-03ff-4743-9c8b-84fbea073bec}, !- Handle
  osb sheathing 0.5 in.,                  !- Name
  Rough,                                  !- Roughness
  0.0127,                                 !- Thickness {m}
  0.1154577,                              !- Conductivity {W/m-K}
  512.64,                                 !- Density {kg/m3}
  1214.23,                                !- Specific Heat {J/kg-K}
  0.9,                                    !- Thermal Absorptance
  0.7,                                    !- Solar Absorptance
  0.7;                                    !- Visible Absorptance

OS:Material,
  {e0053a7a-9819-4159-afc7-3e06d7581443}, !- Handle
  wall stud and cavity,                   !- Name
  Rough,                                  !- Roughness
  0.1397,                                 !- Thickness {m}
  0.0929021674204099,                     !- Conductivity {W/m-K}
  139.0536,                               !- Density {kg/m3}
  1170.23755760369,                       !- Specific Heat {J/kg-K}
  0.9,                                    !- Thermal Absorptance
  0.7,                                    !- Solar Absorptance
  0.7;                                    !- Visible Absorptance

OS:Material,
  {ec6261de-a217-4f04-a4b9-57fa68ac6830}, !- Handle
  gypsum board,                           !- Name
  Rough,                                  !- Roughness
  0.0127,                                 !- Thickness {m}
  0.1602906,                              !- Conductivity {W/m-K}
  801,                                    !- Density {kg/m3}
  837.4,                                  !- Specific Heat {J/kg-K}
  0.9,                                    !- Thermal Absorptance
  0.6,                                    !- Solar Absorptance
  0.6;                                    !- Visible Absorptance

OS:Construction,
  {2b8b5c6b-44ba-4d17-ab32-79fb6e6ab11a}, !- Handle
  Wall1 construction,                     !- Name
  ,                                       !- Surface Rendering Name
  {6564b3fa-a68b-4dac-8bb7-8ff490b56ba1}, !- Layer 1
  {b7f7addd-03ff-4743-9c8b-84fbea073bec}, !- Layer 2
  {e0053a7a-9819-4159-afc7-3e06d7581443}, !- Layer 3
  {ec6261de-a217-4f04-a4b9-57fa68ac6830}; !- Layer 4

OS:Surface,
  {f73cb4dd-919e-4ec1-b28e-3ed6a148c5e4}, !- Handle
  Wall2,                                  !- Name
  Wall,                                   !- Surface Type
  {091790f7-c0a3-41d2-8656-a20cb1d4171a}, !- Construction Name
  {12eff7b4-4af6-4610-b430-6d45faca96fe}, !- Space Name
  Outdoors,                               !- Outside Boundary Condition
  ,                                       !- Outside Boundary Condition Object
  SunExposed,                             !- Sun Exposure
  WindExposed,                            !- Wind Exposure
  ,                                       !- View Factor to Ground
  ,                                       !- Number of Vertices
  6.96193691424288, -1.00690691424288, 0.6096, !- X,Y,Z Vertex 1 {m}
  6.96193691424288, -1.00690691424288, 3.048, !- X,Y,Z Vertex 2 {m}
  6.96193691424288, -6.96193691424288, 3.048, !- X,Y,Z Vertex 3 {m}
  6.96193691424288, -6.96193691424288, 0.6096; !- X,Y,Z Vertex 4 {m}

OS:AdditionalProperties,
  {8a7582ad-27fb-4c09-8dbc-a58ad326aba5}, !- Handle
  {f73cb4dd-919e-4ec1-b28e-3ed6a148c5e4}, !- Object Name
  Length,                                 !- Feature Name 1
  Double,                                 !- Feature Data Type 1
  19.537500000000001,                     !- Feature Value 1
  Azimuth,                                !- Feature Name 2
  Integer,                                !- Feature Data Type 2
  90,                                     !- Feature Value 2
  Tilt,                                   !- Feature Name 3
  Double,                                 !- Feature Data Type 3
  90,                                     !- Feature Value 3
  SurfaceType,                            !- Feature Name 4
  String,                                 !- Feature Data Type 4
  Wall;                                   !- Feature Value 4

OS:Construction,
  {091790f7-c0a3-41d2-8656-a20cb1d4171a}, !- Handle
  Wall2 construction,                     !- Name
  ,                                       !- Surface Rendering Name
  {6564b3fa-a68b-4dac-8bb7-8ff490b56ba1}, !- Layer 1
  {b7f7addd-03ff-4743-9c8b-84fbea073bec}, !- Layer 2
  {e0053a7a-9819-4159-afc7-3e06d7581443}, !- Layer 3
  {ec6261de-a217-4f04-a4b9-57fa68ac6830}; !- Layer 4

OS:Surface,
  {9c4f27c2-9d3c-4dc8-9c0e-5ace591b03f4}, !- Handle
  Wall3,                                  !- Name
  Wall,                                   !- Surface Type
  {89045db2-fca4-4c0d-8714-5cd73072c13f}, !- Construction Name
  {12eff7b4-4af6-4610-b430-6d45faca96fe}, !- Space Name
  Outdoors,                               !- Outside Boundary Condition
  ,                                       !- Outside Boundary Condition Object
  SunExposed,                             !- Sun Exposure
  WindExposed,                            !- Wind Exposure
  ,                                       !- View Factor to Ground
  ,                                       !- Number of Vertices
  6.03290651424288, -6.96193691424288, 0.6096, !- X,Y,Z Vertex 1 {m}
  6.03290651424288, -6.96193691424288, 3.048, !- X,Y,Z Vertex 2 {m}
  -5.11896348575712, -6.96193691424288, 3.048, !- X,Y,Z Vertex 3 {m}
  -5.11896348575712, -6.96193691424288, 0.6096; !- X,Y,Z Vertex 4 {m}

OS:AdditionalProperties,
  {e027bae1-e8ba-4f01-9ab0-ac8c73b16b5c}, !- Handle
  {9c4f27c2-9d3c-4dc8-9c0e-5ace591b03f4}, !- Object Name
  Length,                                 !- Feature Name 1
  Double,                                 !- Feature Data Type 1
  36.587499999999999,                     !- Feature Value 1
  Azimuth,                                !- Feature Name 2
  Integer,                                !- Feature Data Type 2
  180,                                    !- Feature Value 2
  Tilt,                                   !- Feature Name 3
  Double,                                 !- Feature Data Type 3
  90,                                     !- Feature Value 3
  SurfaceType,                            !- Feature Name 4
  String,                                 !- Feature Data Type 4
  Wall;                                   !- Feature Value 4

OS:Construction,
  {89045db2-fca4-4c0d-8714-5cd73072c13f}, !- Handle
  Wall3 construction,                     !- Name
  ,                                       !- Surface Rendering Name
  {6564b3fa-a68b-4dac-8bb7-8ff490b56ba1}, !- Layer 1
  {b7f7addd-03ff-4743-9c8b-84fbea073bec}, !- Layer 2
  {e0053a7a-9819-4159-afc7-3e06d7581443}, !- Layer 3
  {ec6261de-a217-4f04-a4b9-57fa68ac6830}; !- Layer 4

OS:Surface,
  {b061cd2c-23bb-487a-b136-8699bf24803b}, !- Handle
  Wall4,                                  !- Name
  Wall,                                   !- Surface Type
  {c1685f96-cb0b-4719-9c72-76714925c3bd}, !- Construction Name
  {12eff7b4-4af6-4610-b430-6d45faca96fe}, !- Space Name
  Outdoors,                               !- Outside Boundary Condition
  ,                                       !- Outside Boundary Condition Object
  SunExposed,                             !- Sun Exposure
  WindExposed,                            !- Wind Exposure
  ,                                       !- View Factor to Ground
  ,                                       !- Number of Vertices
  -6.96193691424288, 1.00690691424288, 0.6096, !- X,Y,Z Vertex 1 {m}
  -6.96193691424288, 1.00690691424288, 3.048, !- X,Y,Z Vertex 2 {m}
  -6.96193691424288, 6.96193691424288, 3.048, !- X,Y,Z Vertex 3 {m}
  -6.96193691424288, 6.96193691424288, 0.6096; !- X,Y,Z Vertex 4 {m}

OS:AdditionalProperties,
  {99ede55e-06a7-4840-aa86-2344727a3798}, !- Handle
  {b061cd2c-23bb-487a-b136-8699bf24803b}, !- Object Name