
OS:Version,
  {ca2f66e3-513f-4bc6-ad2b-094b248f8dc2}, !- Handle
  3.9.0;                                  !- Version Identifier

OS:SimulationControl,
  {f8d0dda3-4fa2-4910-a6c3-6c7fd5ac9214}, !- Handle
  ,                                       !- Do Zone Sizing Calculation
  ,                                       !- Do System Sizing Calculation
  ,                                       !- Do Plant Sizing Calculation
  No;                                     !- Run Simulation for Sizing Periods

OS:Timestep,
  {f413a1bb-be24-4b09-986e-90723916d27f}, !- Handle
  1;                                      !- Number of Timesteps per Hour

OS:ShadowCalculation,
  {4053a237-6958-41e7-b78f-b9c34574c6a0}, !- Handle
  PolygonClipping,                        !- Shading Calculation Method
  ,                                       !- Shading Calculation Update Frequency Method
  20,                                     !- Shading Calculation Update Frequency
  200,                                    !- Maximum Figures in Shadow Overlap Calculations
  ,                                       !- Polygon Clipping Algorithm
  512,                                    !- Pixel Counting Resolution
  ,                                       !- Sky Diffuse Modeling Algorithm
  No,                                     !- Output External Shading Calculation Results
  No,                                     !- Disable Self-Shading Within Shading Zone Groups
  No;                                     !- Disable Self-Shading From Shading Zone Groups to Other Zones

OS:SurfaceConvectionAlgorithm:Outside,
  {3798e59d-220e-49ed-b9da-670067bda9e7}, !- Handle
  DOE-2;                                  !- Algorithm

OS:SurfaceConvectionAlgorithm:Inside,
  {424b4c7d-ec31-454e-bd25-4b7560883448}, !- Handle
  TARP;                                   !- Algorithm

OS:ZoneCapacitanceMultiplier:ResearchSpecial,
  {9c50be8f-113b-4024-b1a1-dbadf4edbd00}, !- Handle
  7,                                      !- Temperature Capacity Multiplier
  15,                                     !- Humidity Capacity Multiplier
  ;                                       !- Carbon Dioxide Capacity Multiplier

OS:ConvergenceLimits,
  {4a678ca2-126e-4738-bc54-54d510e9829a}, !- Handle
  0;                                      !- Minimum System Timestep {minutes}

OS:RunPeriod,
  {8e54acde-0da8-4f77-937a-532155dd62b9}, !- Handle
  Run Period 1,                           !- Name
  1,                                      !- Begin Month
  1,                                      !- Begin Day of Month
  12,                                     !- End Month
  31,                                     !- End Day of Month
  ,                                       !- Use Weather File Holidays and Special Days
  ,                                       !- Use Weather File Daylight Saving Period
  ,                                       !- Apply Weekend Holiday Rule
  ,                                       !- Use Weather File Rain Indicators
  ,                                       !- Use Weather File Snow Indicators
  ;                                       !- Number of Times Runperiod to be Repeated

OS:PerformancePrecisionTradeoffs,
  {cdbdcb33-02f6-45a2-89a4-a91ffc742d6a}, !- Handle
  ,                                       !- Use Coil Direct Solutions
  CarrollMRT;                             !- Zone Radiant Exchange Algorithm

OS:WeatherFile,
  {240ff362-c420-4269-95cd-56ee8fc72ac8}, !- Handle
  Buffalo Niagara Intl Ap,                !- City
  NY,                                     !- State Province Region
  USA,                                    !- Country
  TMY3,                                   !- Data Source
  725280,                                 !- WMO Number
  42.93,                                  !- Latitude {deg}
  -78.73,                                 !- Longitude {deg}
  -5,                                     !- Time Zone {hr}
  215,                                    !- Elevation {m}
  /Users/nmoore/github/urbanopt-example-geojson-project/example_project/weather/USA_NY_Buffalo-Greater.Buffalo.Intl.AP.725280_TMY3.epw, !- Url
  6B50E0FF,                               !- Checksum
  ,                                       !- Start Date Actual Year
  Sunday;                                 !- Start Day of Week

OS:YearDescription,
  {24520025-d292-40a4-9195-3afd3cd5eb35}, !- Handle
  2007,                                   !- Calendar Year
  ,                                       !- Day of Week for Start Day
  ;                                       !- Is Leap Year

OS:Site,
  {f5a4c60e-ac28-4167-9c3f-b6a02afbb94c}, !- Handle
  Buffalo Niagara Intl Ap_NY,             !- Name
  42.93,                                  !- Latitude {deg}
  -78.73,                                 !- Longitude {deg}
  -5,                                     !- Time Zone {hr}
  215,                                    !- Elevation {m}
  Suburbs,                                !- Terrain
  Yes;                                    !- Keep Site Location Information

OS:RunPeriodControl:DaylightSavingTime,
  {abeda8a6-ff6e-4a2b-8eeb-d73980055b14}, !- Handle
  Mar 12,                                 !- Start Date
  Nov 5;                                  !- End Date

OS:Site:GroundTemperature:Shallow,
  {5044d537-0ea1-4c49-a955-e0408ce7328c}, !- Handle
  4.30207395723828,                       !- January Surface Ground Temperature {C}
  2.29327249652502,                       !- February Surface Ground Temperature {C}
  2.13240047156047,                       !- March Surface Ground Temperature {C}
  3.08567940719286,                       !- April Surface Ground Temperature {C}
  6.91256312497526,                       !- May Surface Ground Temperature {C}
  10.7216195949507,                       !- June Surface Ground Temperature {C}
  14.0238679822574,                       !- July Surface Ground Temperature {C}
  16.1157611184724,                       !- August Surface Ground Temperature {C}
  16.2934789303462,                       !- September Surface Ground Temperature {C}
  14.5920754632847,                       !- October Surface Ground Temperature {C}
  11.374036348653,                        !- November Surface Ground Temperature {C}
  7.68182621661674;                       !- December Surface Ground Temperature {C}

OS:ThermalZone,
  {85c1325e-29df-4e6c-8a72-35bea7afe2af}, !- Handle
  conditioned space,                      !- Name
  1,                                      !- Multiplier
  ,                                       !- Ceiling Height {m}
  346.03186535424,                        !- Volume {m3}
  ,                                       !- Floor Area {m2}
  ,                                       !- Zone Inside Convection Algorithm
  ,                                       !- Zone Outside Convection Algorithm
  ,                                       !- Zone Conditioning Equipment List Name
  {e73c0052-eb76-4088-827b-16ede9f0443f}, !- Zone Air Inlet Port List
  {97eb7982-ce73-4a54-a6c0-8797201173bc}, !- Zone Air Exhaust Port List
  {2354cfbd-dfe8-4011-98ae-1a1ffeaf91b8}, !- Zone Air Node Name
  {44356a93-680f-477b-8f7f-aac407cc4dcd}, !- Zone Return Air Port List
  ,                                       !- Primary Daylighting Control Name
  ,                                       !- Fraction of Zone Controlled by Primary Daylighting Control
  ,                                       !- Secondary Daylighting Control Name
  ,                                       !- Fraction of Zone Controlled by Secondary Daylighting Control
  ,                                       !- Illuminance Map Name
  ,                                       !- Group Rendering Name
  {7731fa60-d000-443c-8617-25697773f2f7}, !- Thermostat Name
  No;                                     !- Use Ideal Air Loads

OS:Node,
  {37482c78-f9ea-4899-ba68-0ead54fcfa63}, !- Handle
  Node 1,                                 !- Name
  {2354cfbd-dfe8-4011-98ae-1a1ffeaf91b8}, !- Inlet Port
  ;                                       !- Outlet Port

OS:Connection,
  {2354cfbd-dfe8-4011-98ae-1a1ffeaf91b8}, !- Handle
  {85c1325e-29df-4e6c-8a72-35bea7afe2af}, !- Source Object
  11,                                     !- Outlet Port
  {37482c78-f9ea-4899-ba68-0ead54fcfa63}, !- Target Object
  2;                                      !- Inlet Port

OS:PortList,
  {e73c0052-eb76-4088-827b-16ede9f0443f}, !- Handle
  {85c1325e-29df-4e6c-8a72-35bea7afe2af}, !- HVAC Component
  {0cf8ecef-1e91-4e50-94cc-d0df4005b8a2}; !- Port 1

OS:PortList,
  {97eb7982-ce73-4a54-a6c0-8797201173bc}, !- Handle
  {85c1325e-29df-4e6c-8a72-35bea7afe2af}; !- HVAC Component

OS:PortList,
  {44356a93-680f-477b-8f7f-aac407cc4dcd}, !- Handle
  {85c1325e-29df-4e6c-8a72-35bea7afe2af}, !- HVAC Component
  {0837eed5-72de-4c48-941f-4ee905448b5a}; !- Port 1

OS:Sizing:Zone,
  {8ffa8b8b-8819-4699-bb8a-9e0fceab455d}, !- Handle
  {85c1325e-29df-4e6c-8a72-35bea7afe2af}, !- Zone or ZoneList Name
  SupplyAirTemperature,                   !- Zone Cooling Design Supply Air Temperature Input Method
  14,                                     !- Zone Cooling Design Supply Air Temperature {C}
  11.11,                                  !- Zone Cooling Design Supply Air Temperature Difference {deltaC}
  SupplyAirTemperature,                   !- Zone Heating Design Supply Air Temperature Input Method
  40,                                     !- Zone Heating Design Supply Air Temperature {C}
  11.11,                                  !- Zone Heating Design Supply Air Temperature Difference {deltaC}
  0.0085,                                 !- Zone Cooling Design Supply Air Humidity Ratio {kg-H2O/kg-air}
  0.008,                                  !- Zone Heating Design Supply Air Humidity Ratio {kg-H2O/kg-air}
  ,                                       !- Zone Heating Sizing Factor
  ,                                       !- Zone Cooling Sizing Factor
  DesignDay,                              !- Cooling Design Air Flow Method
  ,                                       !- Cooling Design Air Flow Rate {m3/s}
  ,                                       !- Cooling Minimum Air Flow per Zone Floor Area {m3/s-m2}
  ,                                       !- Cooling Minimum Air Flow {m3/s}
  ,                                       !- Cooling Minimum Air Flow Fraction
  DesignDay,                              !- Heating Design Air Flow Method
  ,                                       !- Heating Design Air Flow Rate {m3/s}
  ,                                       !- Heating Maximum Air Flow per Zone Floor Area {m3/s-m2}
  ,                                       !- Heating Maximum Air Flow {m3/s}
  ,                                       !- Heating Maximum Air Flow Fraction
  No,                                     !- Account for Dedicated Outdoor Air System
  NeutralSupplyAir,                       !- Dedicated Outdoor Air System Control Strategy
  autosize,                               !- Dedicated Outdoor Air Low Setpoint Temperature for Design {C}
  autosize,                               !- Dedicated Outdoor Air High Setpoint Temperature for Design {C}
  Sensible Load Only No Latent Load,      !- Zone Load Sizing Method
  HumidityRatioDifference,                !- Zone Latent Cooling Design Supply Air Humidity Ratio Input Method
  ,                                       !- Zone Dehumidification Design Supply Air Humidity Ratio {kgWater/kgDryAir}
  0.005,                                  !- Zone Cooling Design Supply Air Humidity Ratio Difference {kgWater/kgDryAir}
  HumidityRatioDifference,                !- Zone Latent Heating Design Supply Air Humidity Ratio Input Method
  ,                                       !- Zone Humidification Design Supply Air Humidity Ratio {kgWater/kgDryAir}
  0.005,                                  !- Zone Humidification Design Supply Air Humidity Ratio Difference {kgWater/kgDryAir}
  ,                                       !- Zone Humidistat Dehumidification Set Point Schedule Name
  ,                                       !- Zone Humidistat Humidification Set Point Schedule Name
  ,                                       !- Design Zone Air Distribution Effectiveness in Cooling Mode
  ,                                       !- Design Zone Air Distribution Effectiveness in Heating Mode
  ,                                       !- Design Zone Secondary Recirculation Fraction {dimensionless}
  ,                                       !- Design Minimum Zone Ventilation Efficiency {dimensionless}
  Coincident;                             !- Sizing Option

OS:ZoneHVAC:EquipmentList,
  {4f49003b-cdd2-4af1-8613-9e05f22d094a}, !- Handle
  Zone HVAC Equipment List 1,             !- Name
  {85c1325e-29df-4e6c-8a72-35bea7afe2af}, !- Thermal Zone
  ,                                       !- Load Distribution Scheme
  {bee04ff1-0e25-4d8a-9ccc-07ab5e9c5e99}, !- Zone Equipment 1
  1,                                      !- Zone Equipment Cooling Sequence 1
  1,                                      !- Zone Equipment Heating or No-Load Sequence 1
  {f6c07efc-0316-45ba-95f2-c4a97ad8be48}, !- Zone Equipment Sequential Cooling Fraction Schedule Name 1
  {f4acde78-da71-4f69-bbce-006e41f976fc}; !- Zone Equipment Sequential Heating Fraction Schedule Name 1

OS:AdditionalProperties,
  {ba7ce5eb-9b39-4d7f-a42a-8175578a60ae}, !- Handle
  {85c1325e-29df-4e6c-8a72-35bea7afe2af}, !- Object Name
  ObjectType,                             !- Feature Name 1
  String,                                 !- Feature Data Type 1
  conditioned space;                      !- Feature Value 1

OS:Space,
  {e6183321-eb95-44bf-8580-7da3bae77733}, !- Handle
  conditioned space 1,                    !- Name
  ,                                       !- Space Type Name
  ,                                       !- Default Construction Set Name
  ,                                       !- Default Schedule Set Name
  ,                                       !- Direction of Relative North {deg}
  ,                                       !- X Origin {m}
  ,                                       !- Y Origin {m}
  ,                                       !- Z Origin {m}
  ,                                       !- Building Story Name
  {85c1325e-29df-4e6c-8a72-35bea7afe2af}, !- Thermal Zone Name
  ,                                       !- Part of Total Floor Area
  ,                                       !- Design Specification Outdoor Air Object Name
  ,                                       !- Building Unit Name
  346.03186535424;                        !- Volume {m3}

OS:Schedule:Ruleset,
  {059204b6-3141-44bd-ba14-e444e6235092}, !- Handle
  heating setpoint,                       !- Name
  {dce5c752-e371-4d38-9e21-bc17962a99e8}, !- Schedule Type Limits Name
  {5583103f-b779-45e2-bc42-6d74c086a131}; !- Default Day Schedule Name

OS:Schedule:Day,
  {5583103f-b779-45e2-bc42-6d74c086a131}, !- Handle
  heating setpoint default day,           !- Name
  {dce5c752-e371-4d38-9e21-bc17962a99e8}, !- Schedule Type Limits Name
  ,                                       !- Interpolate to Timestep
  24,                                     !- Hour 1
  0,                                      !- Minute 1
  0;                                      !- Value Until Time 1

OS:Schedule:Rule,
  {f4257be8-adda-4f17-9b38-c3a23ba8b831}, !- Handle
  heating setpoint allday rule,           !- Name
  {059204b6-3141-44bd-ba14-e444e6235092}, !- Schedule Ruleset Name
  0,                                      !- Rule Order
  {f9053897-f387-4f26-bc31-60b311ce9b64}, !- Day Schedule Name
  Yes,                                    !- Apply Sunday
  Yes,                                    !- Apply Monday
  Yes,                                    !- Apply Tuesday
  Yes,                                    !- Apply Wednesday
  Yes,                                    !- Apply Thursday
  Yes,                                    !- Apply Friday
  Yes,                                    !- Apply Saturday
  DateRange,                              !- Date Specification Type
  1,                                      !- Start Month
  1,                                      !- Start Day
  12,                                     !- End Month
  31;                                     !- End Day

OS:Schedule:Day,
  {f9053897-f387-4f26-bc31-60b311ce9b64}, !- Handle
  heating setpoint day,                   !- Name
  {dce5c752-e371-4d38-9e21-bc17962a99e8}, !- Schedule Type Limits Name
  ,                                       !- Interpolate to Timestep
  24,                                     !- Hour 1
  0,                                      !- Minute 1
  20;                                     !- Value Until Time 1

OS:Schedule:Ruleset,
  {8106da65-1ac5-42f9-b431-674cf74e6fdb}, !- Handle
  cooling setpoint,                       !- Name
  {dce5c752-e371-4d38-9e21-bc17962a99e8}, !- Schedule Type Limits Name
  {bc32657d-a6ba-41ec-97f9-dd7c0a1513a7}; !- Default Day Schedule Name

OS:Schedule:Day,
  {bc32657d-a6ba-41ec-97f9-dd7c0a1513a7}, !- Handle
  cooling setpoint default day,           !- Name
  {dce5c752-e371-4d38-9e21-bc17962a99e8}, !- Schedule Type Limits Name
  ,                                       !- Interpolate to Timestep
  24,                                     !- Hour 1
  0,                                      !- Minute 1
  0;                                      !- Value Until Time 1

OS:Schedule:Rule,
  {9509015d-f7ef-4b46-a6b5-c4469f24c672}, !- Handle
  cooling setpoint allday rule,           !- Name
  {8106da65-1ac5-42f9-b431-674cf74e6fdb}, !- Schedule Ruleset Name
  0,                                      !- Rule Order
  {de2d56d6-8579-41be-bbcd-d31a7b88d6b5}, !- Day Schedule Name
  Yes,                                    !- Apply Sunday
  Yes,                                    !- Apply Monday
  Yes,                                    !- Apply Tuesday
  Yes,                                    !- Apply Wednesday
  Yes,                                    !- Apply Thursday
  Yes,                                    !- Apply Friday
  Yes,                                    !- Apply Saturday
  DateRange,                              !- Date Specification Type
  1,                                      !- Start Month
  1,                                      !- Start Day
  12,                                     !- End Month
  31;                                     !- End Day

OS:Schedule:Day,
  {de2d56d6-8579-41be-bbcd-d31a7b88d6b5}, !- Handle
  cooling setpoint day,                   !- Name
  {dce5c752-e371-4d38-9e21-bc17962a99e8}, !- Schedule Type Limits Name
  ,                                       !- Interpolate to Timestep
  24,                                     !- Hour 1
  0,                                      !- Minute 1
  25.5555555555556;                       !- Value Until Time 1

OS:ThermostatSetpoint:DualSetpoint,
  {7731fa60-d000-443c-8617-25697773f2f7}, !- Handle
  conditioned space temperature setpoint, !- Name
  {059204b6-3141-44bd-ba14-e444e6235092}, !- Heating Setpoint Temperature Schedule Name
  {8106da65-1ac5-42f9-b431-674cf74e6fdb}, !- Cooling Setpoint Temperature Schedule Name
  0;                                      !- Temperature Difference Between Cutout And Setpoint {deltaC}

OS:ScheduleTypeLimits,
  {dce5c752-e371-4d38-9e21-bc17962a99e8}, !- Handle
  Temperature,                            !- Name
  ,                                       !- Lower Limit Value
  ,                                       !- Upper Limit Value
  Continuous,                             !- Numeric Type
  Temperature;                            !- Unit Type

OS:Surface,
  {56da4151-511e-4a63-a60e-ac07f7560c5b}, !- Handle
  Wall1,                                  !- Name
  Wall,                                   !- Surface Type
  {ad65559d-4fab-4ebb-bdd9-5e3cb75b4d41}, !- Construction Name
  {e6183321-eb95-44bf-8580-7da3bae77733}, !- Space Name
  Outdoors,                               !- Outside Boundary Condition
  ,                                       !- Outside Boundary Condition Object
  SunExposed,                             !- Sun Exposure
  WindExposed,                            !- Wind Exposure
  ,                                       !- View Factor to Ground
  ,                                       !- Number of Vertices
  -4.95193308575712, 6.96193691424288, 0.6096, !- X,Y,Z Vertex 1 {m}
  -4.95193308575712, 6.96193691424288, 3.048, !- X,Y,Z Vertex 2 {m}
  6.96193691424288, 6.96193691424288, 3.048, !- X,Y,Z Vertex 3 {m}
  6.96193691424288, 6.96193691424288, 0.6096; !- X,Y,Z Vertex 4 {m}

OS:AdditionalProperties,
  {b2fc6898-cbc8-4e48-bef2-fd6c1ea77059}, !- Handle
  {56da4151-511e-4a63-a60e-ac07f7560c5b}, !- Object Name
  Length,                                 !- Feature Name 1
  Double,                                 !- Feature Data Type 1
  39.087499999999999,                     !- Feature Value 1
  Azimuth,                                !- Feature Name 2
  Integer,                                !- Feature Data Type 2
  0,                                      !- Feature Value 2
  Tilt,                                   !- Feature Name 3
  Double,                                 !- Feature Data Type 3
  90,                                     !- Feature Value 3
  SurfaceType,                            !- Feature Name 4
  String,                                 !- Feature Data Type 4
  Wall;                                   !- Feature Value 4

OS:Material,
  {0343f6ce-5067-45f0-b2fe-45ee6c4abd01}, !- Handle
  wood siding,                            !- Name
  Rough,                                  !- Roughness
  0.0254,                                 !- Thickness {m}
  0.1024175,                              !- Conductivity {W/m-K}
  544.68,                                 !- Density {kg/m3}
  1172.36,                                !- Specific Heat {J/kg-K}
  0.9,                                    !- Thermal Absorptance
  0.7,                                    !- Solar Absorptance
  0.7;                                    !- Visible Absorptance

OS:Material,
  {0540ca90-5c08-4b87-a988-9c6398d69410}, !- Handle
  osb sheathing 0.5 in.,                  !- Name
  Rough,                                  !- Roughness
  0.0127,                                 !- Thickness {m}
  0.1154577,                              !- Conductivity {W/m-K}
  512.64,                                 !- Density {kg/m3}
  1214.23,                                !- Specific Heat {J/kg-K}
  0.9,                                    !- Thermal Absorptance
  0.7,                                    !- Solar Absorptance
  0.7;                                    !- Visible Absorptance

OS:Material,
  {ba790f05-d3bd-44f4-857b-fcd343a0e5b2}, !- Handle
  wall stud and cavity,                   !- Name
  Rough,                                  !- Roughness
  0.1397,                                 !- Thickness {m}
  0.0929021674204099,                     !- Conductivity {W/m-K}
  139.0536,                               !- Density {kg/m3}
  1170.23755760369,                       !- Specific Heat {J/kg-K}
  0.9,                                    !- Thermal Absorptance
  0.7,                                    !- Solar Absorptance
  0.7;                                    !- Visible Absorptance

OS:Material,
  {f250fea1-1e59-4012-9c2c-269c5e78efd7}, !- Handle
  gypsum board,                           !- Name
  Rough,                                  !- Roughness
  0.0127,                                 !- Thickness {m}
  0.1602906,                              !- Conductivity {W/m-K}
  801,                                    !- Density {kg/m3}
  837.4,                                  !- Specific Heat {J/kg-K}
  0.9,                                    !- Thermal Absorptance
  0.6,                                    !- Solar Absorptance
  0.6;                                    !- Visible Absorptance

OS:Construction,
  {ad65559d-4fab-4ebb-bdd9-5e3cb75b4d41}, !- Handle
  Wall1 construction,                     !- Name
  ,                                       !- Surface Rendering Name
  {0343f6ce-5067-45f0-b2fe-45ee6c4abd01}, !- Layer 1
  {0540ca90-5c08-4b87-a988-9c6398d69410}, !- Layer 2
  {ba790f05-d3bd-44f4-857b-fcd343a0e5b2}, !- Layer 3
  {f250fea1-1e59-4012-9c2c-269c5e78efd7}; !- Layer 4

OS:Surface,
  {fdb3aead-b5f0-4a46-8a27-c0c7391f85a2}, !- Handle
  Wall2,                                  !- Name
  Wall,                                   !- Surface Type
  {7a546f94-37b7-4b1d-8434-f6d721034f43}, !- Construction Name
  {e6183321-eb95-44bf-8580-7da3bae77733}, !- Space Name
  Outdoors,                               !- Outside Boundary Condition
  ,                                       !- Outside Boundary Condition Object
  SunExposed,                             !- Sun Exposure
  WindExposed,                            !- Wind Exposure
  ,                                       !- View Factor to Ground
  ,                                       !- Number of Vertices
  6.96193691424288, -1.00690691424288, 0.6096, !- X,Y,Z Vertex 1 {m}
  6.96193691424288, -1.00690691424288, 3.048, !- X,Y,Z Vertex 2 {m}
  6.96193691424288, -6.96193691424288, 3.048, !- X,Y,Z Vertex 3 {m}
  6.96193691424288, -6.96193691424288, 0.6096; !- X,Y,Z Vertex 4 {m}

OS:AdditionalProperties,
  {b8689b42-e5df-43dc-8def-3ffeddf4a9d8}, !- Handle
  {fdb3aead-b5f0-4a46-8a27-c0c7391f85a2}, !- Object Name
  Length,                                 !- Feature Name 1
  Double,                                 !- Feature Data Type 1
  19.537500000000001,                     !- Feature Value 1
  Azimuth,                                !- Feature Name 2
  Integer,                                !- Feature Data Type 2
  90,                                     !- Feature Value 2
  Tilt,                                   !- Feature Name 3
  Double,                                 !- Feature Data Type 3
  90,                                     !- Feature Value 3
  SurfaceType,                            !- Feature Name 4
  String,                                 !- Feature Data Type 4
  Wall;                                   !- Feature Value 4

OS:Construction,
  {7a546f94-37b7-4b1d-8434-f6d721034f43}, !- Handle
  Wall2 construction,                     !- Name
  ,                                       !- Surface Rendering Name
  {0343f6ce-5067-45f0-b2fe-45ee6c4abd01}, !- Layer 1
  {0540ca90-5c08-4b87-a988-9c6398d69410}, !- Layer 2
  {ba790f05-d3bd-44f4-857b-fcd343a0e5b2}, !- Layer 3
  {f250fea1-1e59-4012-9c2c-269c5e78efd7}; !- Layer 4

OS:Surface,
  {469456ca-12ab-4ae9-b96b-91fa4e29a642}, !- Handle
  Wall3,                                  !- Name
  Wall,                                   !- Surface Type
  {e2ecebb0-33e5-4b73-abf6-e4649c481c96}, !- Construction Name
  {e6183321-eb95-44bf-8580-7da3bae77733}, !- Space Name
  Outdoors,                               !- Outside Boundary Condition
  ,                                       !- Outside Boundary Condition Object
  SunExposed,                             !- Sun Exposure
  WindExposed,                            !- Wind Exposure
  ,                                       !- View Factor to Ground
  ,                                       !- Number of Vertices
  6.03290651424288, -6.96193691424288, 0.6096, !- X,Y,Z Vertex 1 {m}
  6.03290651424288, -6.96193691424288, 3.048, !- X,Y,Z Vertex 2 {m}
  -5.11896348575712, -6.96193691424288, 3.048, !- X,Y,Z Vertex 3 {m}
  -5.11896348575712, -6.96193691424288, 0.6096; !- X,Y,Z Vertex 4 {m}

OS:AdditionalProperties,
  {75bfd3f6-071e-4c60-a4d4-5bf3b05d718c}, !- Handle
  {469456ca-12ab-4ae9-b96b-91fa4e29a642}, !- Object Name
  Length,                                 !- Feature Name 1
  Double,                                 !- Feature Data Type 1
  36.587499999999999,                     !- Feature Value 1
  Azimuth,                                !- Feature Name 2
  Integer,                                !- Feature Data Type 2
  180,                                    !- Feature Value 2
  Tilt,                                   !- Feature Name 3
  Double,                                 !- Feature Data Type 3
  90,                                     !- Feature Value 3
  SurfaceType,                            !- Feature Name 4
  String,                                 !- Feature Data Type 4
  Wall;                                   !- Feature Value 4

OS:Construction,
  {e2ecebb0-33e5-4b73-abf6-e4649c481c96}, !- Handle
  Wall3 construction,                     !- Name
  ,                                       !- Surface Rendering Name
  {0343f6ce-5067-45f0-b2fe-45ee6c4abd01}, !- Layer 1
  {0540ca90-5c08-4b87-a988-9c6398d69410}, !- Layer 2
  {ba790f05-d3bd-44f4-857b-fcd343a0e5b2}, !- Layer 3
  {f250fea1-1e59-4012-9c2c-269c5e78efd7}; !- Layer 4

OS:Surface,
  {9e11730d-c0c2-4a0d-b884-ad0c572acd76}, !- Handle
  Wall4,                                  !- Name
  Wall,                                   !- Surface Type
  {f0f18548-5974-4472-890f-98d9328717a9}, !- Construction Name
  {e6183321-eb95-44bf-8580-7da3bae77733}, !- Space Name
  Outdoors,                               !- Outside Boundary Condition
  ,                                       !- Outside Boundary Condition Object
  SunExposed,                             !- Sun Exposure
  WindExposed,                            !- Wind Exposure
  ,                                       !- View Factor to Ground
  ,                                       !- Number of Vertices
  -6.96193691424288, 1.00690691424288, 0.6096, !- X,Y,Z Vertex 1 {m}
  -6.96193691424288, 1.00690691424288, 3.048, !- X,Y,Z Vertex 2 {m}
  -6.96193691424288, 6.96193691424288, 3.048, !- X,Y,Z Vertex 3 {m}
  -6.96193691424288, 6.96193691424288, 0.6096; !- X,Y,Z Vertex 4 {m}

OS:AdditionalProperties,
  {20b99760-b3cf-4ad1-a66b-ad4d70fe75f7}, !- Handle
  {9e11730d-c0c2-4a0d-b884-ad0c572acd76}, !- Object Name