
OS:Version,
  {3b954953-34a9-4d09-b29b-3f16d74f7aff}, !- Handle
  3.9.0;                                  !- Version Identifier

OS:SimulationControl,
  {efc412ab-3fbd-4e75-9c40-c7b142b97084}, !- Handle
  ,                                       !- Do Zone Sizing Calculation
  ,                                       !- Do System Sizing Calculation
  ,                                       !- Do Plant Sizing Calculation
  No;                                     !- Run Simulation for Sizing Periods

OS:Timestep,
  {45a9c37a-dc77-4a3c-b1b3-49b12893bb0b}, !- Handle
  1;                                      !- Number of Timesteps per Hour

OS:ShadowCalculation,
  {01aaab75-67f3-494f-b0fd-e1b39eb57a1c}, !- Handle
  PolygonClipping,                        !- Shading Calculation Method
  ,                                       !- Shading Calculation Update Frequency Method
  20,                                     !- Shading Calculation Update Frequency
  200,                                    !- Maximum Figures in Shadow Overlap Calculations
  ,                                       !- Polygon Clipping Algorithm
  512,                                    !- Pixel Counting Resolution
  ,                                       !- Sky Diffuse Modeling Algorithm
  No,                                     !- Output External Shading Calculation Results
  No,                                     !- Disable Self-Shading Within Shading Zone Groups
  No;                                     !- Disable Self-Shading From Shading Zone Groups to Other Zones

OS:SurfaceConvectionAlgorithm:Outside,
  {4b306f27-dd58-4b31-874f-29edfc1229ed}, !- Handle
  DOE-2;                                  !- Algorithm

OS:SurfaceConvectionAlgorithm:Inside,
  {5c87627c-87b2-43d9-bd9f-d9ab5ce30abf}, !- Handle
  TARP;                                   !- Algorithm

OS:ZoneCapacitanceMultiplier:ResearchSpecial,
  {86c0162a-0bec-4de6-8f9c-03df6040b277}, !- Handle
  7,                                      !- Temperature Capacity Multiplier
  15,                                     !- Humidity Capacity Multiplier
  ;                                       !- Carbon Dioxide Capacity Multiplier

OS:ConvergenceLimits,
  {2b7f3644-32fc-48ba-9061-3526e9442759}, !- Handle
  0;                                      !- Minimum System Timestep {minutes}

OS:RunPeriod,
  {a7a08eb7-317f-4fcf-8cdd-4868ba99e6e1}, !- Handle
  Run Period 1,                           !- Name
  1,                                      !- Begin Month
  1,                                      !- Begin Day of Month
  12,                                     !- End Month
  31,                                     !- End Day of Month
  ,                                       !- Use Weather File Holidays and Special Days
  ,                                       !- Use Weather File Daylight Saving Period
  ,                                       !- Apply Weekend Holiday Rule
  ,                                       !- Use Weather File Rain Indicators
  ,                                       !- Use Weather File Snow Indicators
  ;                                       !- Number of Times Runperiod to be Repeated

OS:PerformancePrecisionTradeoffs,
  {49b9f6ed-76d1-4ef7-ad76-c380bf952c7c}, !- Handle
  ,                                       !- Use Coil Direct Solutions
  CarrollMRT;                             !- Zone Radiant Exchange Algorithm

OS:WeatherFile,
  {dc29e5fe-c6df-417b-8848-42e1fdc38316}, !- Handle
  Buffalo Niagara Intl Ap,                !- City
  NY,                                     !- State Province Region
  USA,                                    !- Country
  TMY3,                                   !- Data Source
  725280,                                 !- WMO Number
  42.93,                                  !- Latitude {deg}
  -78.73,                                 !- Longitude {deg}
  -5,                                     !- Time Zone {hr}
  215,                                    !- Elevation {m}
  /Users/nmoore/github/urbanopt-example-geojson-project/example_project/weather/USA_NY_Buffalo-Greater.Buffalo.Intl.AP.725280_TMY3.epw, !- Url
  6B50E0FF,                               !- Checksum
  ,                                       !- Start Date Actual Year
  Sunday;                                 !- Start Day of Week

OS:YearDescription,
  {57038667-f446-4ff7-a22c-2ae2dc8de57c}, !- Handle
  2007,                                   !- Calendar Year
  ,                                       !- Day of Week for Start Day
  ;                                       !- Is Leap Year

OS:Site,
  {75c43368-fcb2-45ef-9734-1feaf1ddb0fe}, !- Handle
  Buffalo Niagara Intl Ap_NY,             !- Name
  42.93,                                  !- Latitude {deg}
  -78.73,                                 !- Longitude {deg}
  -5,                                     !- Time Zone {hr}
  215,                                    !- Elevation {m}
  Suburbs,                                !- Terrain
  Yes;                                    !- Keep Site Location Information

OS:RunPeriodControl:DaylightSavingTime,
  {56611654-084b-4cff-b0e9-ba3b17025327}, !- Handle
  Mar 12,                                 !- Start Date
  Nov 5;                                  !- End Date

OS:Site:GroundTemperature:Shallow,
  {56b9d6e7-67ff-4413-9fe0-9a51d5c71a18}, !- Handle
  4.30207395723828,                       !- January Surface Ground Temperature {C}
  2.29327249652502,                       !- February Surface Ground Temperature {C}
  2.13240047156047,                       !- March Surface Ground Temperature {C}
  3.08567940719286,                       !- April Surface Ground Temperature {C}
  6.91256312497526,                       !- May Surface Ground Temperature {C}
  10.7216195949507,                       !- June Surface Ground Temperature {C}
  14.0238679822574,                       !- July Surface Ground Temperature {C}
  16.1157611184724,                       !- August Surface Ground Temperature {C}
  16.2934789303462,                       !- September Surface Ground Temperature {C}
  14.5920754632847,                       !- October Surface Ground Temperature {C}
  11.374036348653,                        !- November Surface Ground Temperature {C}
  7.68182621661674;                       !- December Surface Ground Temperature {C}

OS:ThermalZone,
  {1281433f-ae5d-4760-b4ce-6e072a96e7e5}, !- Handle
  conditioned space,                      !- Name
  1,                                      !- Multiplier
  ,                                       !- Ceiling Height {m}
  692.06373070848,                        !- Volume {m3}
  ,                                       !- Floor Area {m2}
  ,                                       !- Zone Inside Convection Algorithm
  ,                                       !- Zone Outside Convection Algorithm
  ,                                       !- Zone Conditioning Equipment List Name
  {754d5668-4c28-4017-a30f-d6388b83e117}, !- Zone Air Inlet Port List
  {53d0d8a6-3c8b-4734-b15b-722e9875073c}, !- Zone Air Exhaust Port List
  {2ed91182-b715-4f99-ab50-911ea1ff9600}, !- Zone Air Node Name
  {985d32ac-0ef4-49b8-b718-211350a13fbf}, !- Zone Return Air Port List
  ,                                       !- Primary Daylighting Control Name
  ,                                       !- Fraction of Zone Controlled by Primary Daylighting Control
  ,                                       !- Secondary Daylighting Control Name
  ,                                       !- Fraction of Zone Controlled by Secondary Daylighting Control
  ,                                       !- Illuminance Map Name
  ,                                       !- Group Rendering Name
  {5b586de1-8388-491c-8563-ae48f041e29e}, !- Thermostat Name
  No;                                     !- Use Ideal Air Loads

OS:Node,
  {81434456-7ffd-4109-ae01-4a5e729dff31}, !- Handle
  Node 1,                                 !- Name
  {2ed91182-b715-4f99-ab50-911ea1ff9600}, !- Inlet Port
  ;                                       !- Outlet Port

OS:Connection,
  {2ed91182-b715-4f99-ab50-911ea1ff9600}, !- Handle
  {1281433f-ae5d-4760-b4ce-6e072a96e7e5}, !- Source Object
  11,                                     !- Outlet Port
  {81434456-7ffd-4109-ae01-4a5e729dff31}, !- Target Object
  2;                                      !- Inlet Port

OS:PortList,
  {754d5668-4c28-4017-a30f-d6388b83e117}, !- Handle
  {1281433f-ae5d-4760-b4ce-6e072a96e7e5}; !- HVAC Component

OS:PortList,
  {53d0d8a6-3c8b-4734-b15b-722e9875073c}, !- Handle
  {1281433f-ae5d-4760-b4ce-6e072a96e7e5}; !- HVAC Component

OS:PortList,
  {985d32ac-0ef4-49b8-b718-211350a13fbf}, !- Handle
  {1281433f-ae5d-4760-b4ce-6e072a96e7e5}; !- HVAC Component

OS:Sizing:Zone,
  {ea7506b5-a103-44bb-be5e-84503d2b62d6}, !- Handle
  {1281433f-ae5d-4760-b4ce-6e072a96e7e5}, !- Zone or ZoneList Name
  SupplyAirTemperature,                   !- Zone Cooling Design Supply Air Temperature Input Method
  14,                                     !- Zone Cooling Design Supply Air Temperature {C}
  11.11,                                  !- Zone Cooling Design Supply Air Temperature Difference {deltaC}
  SupplyAirTemperature,                   !- Zone Heating Design Supply Air Temperature Input Method
  40,                                     !- Zone Heating Design Supply Air Temperature {C}
  11.11,                                  !- Zone Heating Design Supply Air Temperature Difference {deltaC}
  0.0085,                                 !- Zone Cooling Design Supply Air Humidity Ratio {kg-H2O/kg-air}
  0.008,                                  !- Zone Heating Design Supply Air Humidity Ratio {kg-H2O/kg-air}
  ,                                       !- Zone Heating Sizing Factor
  ,                                       !- Zone Cooling Sizing Factor
  DesignDay,                              !- Cooling Design Air Flow Method
  ,                                       !- Cooling Design Air Flow Rate {m3/s}
  ,                                       !- Cooling Minimum Air Flow per Zone Floor Area {m3/s-m2}
  ,                                       !- Cooling Minimum Air Flow {m3/s}
  ,                                       !- Cooling Minimum Air Flow Fraction
  DesignDay,                              !- Heating Design Air Flow Method
  ,                                       !- Heating Design Air Flow Rate {m3/s}
  ,                                       !- Heating Maximum Air Flow per Zone Floor Area {m3/s-m2}
  ,                                       !- Heating Maximum Air Flow {m3/s}
  ,                                       !- Heating Maximum Air Flow Fraction
  No,                                     !- Account for Dedicated Outdoor Air System
  NeutralSupplyAir,                       !- Dedicated Outdoor Air System Control Strategy
  autosize,                               !- Dedicated Outdoor Air Low Setpoint Temperature for Design {C}
  autosize,                               !- Dedicated Outdoor Air High Setpoint Temperature for Design {C}
  Sensible Load Only No Latent Load,      !- Zone Load Sizing Method
  HumidityRatioDifference,                !- Zone Latent Cooling Design Supply Air Humidity Ratio Input Method
  ,                                       !- Zone Dehumidification Design Supply Air Humidity Ratio {kgWater/kgDryAir}
  0.005,                                  !- Zone Cooling Design Supply Air Humidity Ratio Difference {kgWater/kgDryAir}
  HumidityRatioDifference,                !- Zone Latent Heating Design Supply Air Humidity Ratio Input Method
  ,                                       !- Zone Humidification Design Supply Air Humidity Ratio {kgWater/kgDryAir}
  0.005,                                  !- Zone Humidification Design Supply Air Humidity Ratio Difference {kgWater/kgDryAir}
  ,                                       !- Zone Humidistat Dehumidification Set Point Schedule Name
  ,                                       !- Zone Humidistat Humidification Set Point Schedule Name
  ,                                       !- Design Zone Air Distribution Effectiveness in Cooling Mode
  ,                                       !- Design Zone Air Distribution Effectiveness in Heating Mode
  ,                                       !- Design Zone Secondary Recirculation Fraction {dimensionless}
  ,                                       !- Design Minimum Zone Ventilation Efficiency {dimensionless}
  Coincident;                             !- Sizing Option

OS:ZoneHVAC:EquipmentList,
  {a09647c0-7153-4bc6-9473-835024521cfb}, !- Handle
  Zone HVAC Equipment List 1,             !- Name
  {1281433f-ae5d-4760-b4ce-6e072a96e7e5}, !- Thermal Zone
  ,                                       !- Load Distribution Scheme
  {bde8e859-eb66-4fe8-9e4e-c333c6d8d007}, !- Zone Equipment 1
  1,                                      !- Zone Equipment Cooling Sequence 1
  1,                                      !- Zone Equipment Heating or No-Load Sequence 1
  {be362044-5f90-41ad-8616-ce25043c5793}, !- Zone Equipment Sequential Cooling Fraction Schedule Name 1
  {5ee0b034-125a-421f-90f5-29b8d1ae3227}; !- Zone Equipment Sequential Heating Fraction Schedule Name 1

OS:AdditionalProperties,
  {a996d260-c4f6-4357-b28f-e196ea78935c}, !- Handle
  {1281433f-ae5d-4760-b4ce-6e072a96e7e5}, !- Object Name
  ObjectType,                             !- Feature Name 1
  String,                                 !- Feature Data Type 1
  conditioned space;                      !- Feature Value 1

OS:Space,
  {74cacd37-f425-47c4-8f4a-1c63f7a3fe71}, !- Handle
  conditioned space 1,                    !- Name
  ,                                       !- Space Type Name
  ,                                       !- Default Construction Set Name
  ,                                       !- Default Schedule Set Name
  ,                                       !- Direction of Relative North {deg}
  ,                                       !- X Origin {m}
  ,                                       !- Y Origin {m}
  ,                                       !- Z Origin {m}
  ,                                       !- Building Story Name
  {1281433f-ae5d-4760-b4ce-6e072a96e7e5}, !- Thermal Zone Name
  ,                                       !- Part of Total Floor Area
  ,                                       !- Design Specification Outdoor Air Object Name
  ,                                       !- Building Unit Name
  692.06373070848;                        !- Volume {m3}

OS:Schedule:Ruleset,
  {4afb1fe8-b75e-4a0e-91f3-aebe80ba602e}, !- Handle
  heating setpoint,                       !- Name
  {4d174d8e-aedc-42f7-b5b4-987560efed87}, !- Schedule Type Limits Name
  {7c70b016-8795-45e9-931c-2a15ce42fee3}; !- Default Day Schedule Name

OS:Schedule:Day,
  {7c70b016-8795-45e9-931c-2a15ce42fee3}, !- Handle
  heating setpoint default day,           !- Name
  {4d174d8e-aedc-42f7-b5b4-987560efed87}, !- Schedule Type Limits Name
  ,                                       !- Interpolate to Timestep
  24,                                     !- Hour 1
  0,                                      !- Minute 1
  0;                                      !- Value Until Time 1

OS:Schedule:Rule,
  {ea990b25-11f6-4497-ac6a-984bb8b97ed3}, !- Handle
  heating setpoint allday rule,           !- Name
  {4afb1fe8-b75e-4a0e-91f3-aebe80ba602e}, !- Schedule Ruleset Name
  0,                                      !- Rule Order
  {fbe51c75-40f6-4c62-b824-705d21cdf7e4}, !- Day Schedule Name
  Yes,                                    !- Apply Sunday
  Yes,                                    !- Apply Monday
  Yes,                                    !- Apply Tuesday
  Yes,                                    !- Apply Wednesday
  Yes,                                    !- Apply Thursday
  Yes,                                    !- Apply Friday
  Yes,                                    !- Apply Saturday
  DateRange,                              !- Date Specification Type
  1,                                      !- Start Month
  1,                                      !- Start Day
  12,                                     !- End Month
  31;                                     !- End Day

OS:Schedule:Day,
  {fbe51c75-40f6-4c62-b824-705d21cdf7e4}, !- Handle
  heating setpoint day,                   !- Name
  {4d174d8e-aedc-42f7-b5b4-987560efed87}, !- Schedule Type Limits Name
  ,                                       !- Interpolate to Timestep
  24,                                     !- Hour 1
  0,                                      !- Minute 1
  20;                                     !- Value Until Time 1

OS:Schedule:Ruleset,
  {a477c2fe-207f-4776-860f-40a2f4f3e853}, !- Handle
  cooling setpoint,                       !- Name
  {4d174d8e-aedc-42f7-b5b4-987560efed87}, !- Schedule Type Limits Name
  {9e9a7b6d-24c7-4487-912d-d0de7947465d}; !- Default Day Schedule Name

OS:Schedule:Day,
  {9e9a7b6d-24c7-4487-912d-d0de7947465d}, !- Handle
  cooling setpoint default day,           !- Name
  {4d174d8e-aedc-42f7-b5b4-987560efed87}, !- Schedule Type Limits Name
  ,                                       !- Interpolate to Timestep
  24,                                     !- Hour 1
  0,                                      !- Minute 1
  0;                                      !- Value Until Time 1

OS:Schedule:Rule,
  {92cf0283-2158-4f61-9ef3-399a90fd6cd2}, !- Handle
  cooling setpoint allday rule,           !- Name
  {a477c2fe-207f-4776-860f-40a2f4f3e853}, !- Schedule Ruleset Name
  0,                                      !- Rule Order
  {b1702cb1-16d5-40e4-8d38-d9eb4f2ef428}, !- Day Schedule Name
  Yes,                                    !- Apply Sunday
  Yes,                                    !- Apply Monday
  Yes,                                    !- Apply Tuesday
  Yes,                                    !- Apply Wednesday
  Yes,                                    !- Apply Thursday
  Yes,                                    !- Apply Friday
  Yes,                                    !- Apply Saturday
  DateRange,                              !- Date Specification Type
  1,                                      !- Start Month
  1,                                      !- Start Day
  12,                                     !- End Month
  31;                                     !- End Day

OS:Schedule:Day,
  {b1702cb1-16d5-40e4-8d38-d9eb4f2ef428}, !- Handle
  cooling setpoint day,                   !- Name
  {4d174d8e-aedc-42f7-b5b4-987560efed87}, !- Schedule Type Limits Name
  ,                                       !- Interpolate to Timestep
  24,                                     !- Hour 1
  0,                                      !- Minute 1
  25.5555555555556;                       !- Value Until Time 1

OS:ThermostatSetpoint:DualSetpoint,
  {5b586de1-8388-491c-8563-ae48f041e29e}, !- Handle
  conditioned space temperature setpoint, !- Name
  {4afb1fe8-b75e-4a0e-91f3-aebe80ba602e}, !- Heating Setpoint Temperature Schedule Name
  {a477c2fe-207f-4776-860f-40a2f4f3e853}, !- Cooling Setpoint Temperature Schedule Name
  0;                                      !- Temperature Difference Between Cutout And Setpoint {deltaC}

OS:ScheduleTypeLimits,
  {4d174d8e-aedc-42f7-b5b4-987560efed87}, !- Handle
  Temperature,                            !- Name
  ,                                       !- Lower Limit Value
  ,                                       !- Upper Limit Value
  Continuous,                             !- Numeric Type
  Temperature;                            !- Unit Type

OS:Surface,
  {56db3261-8b03-4e86-973d-da6a07afa83b}, !- Handle
  Roof1,                                  !- Name
  RoofCeiling,                            !- Surface Type
  {bd613d9c-3a04-4550-91c0-f99caea8f7df}, !- Construction Name
  {6af96338-8aa8-40d7-925e-853f043ecc69}, !- Space Name
  Outdoors,                               !- Outside Boundary Condition
  ,                                       !- Outside Boundary Condition Object
  SunExposed,                             !- Sun Exposure
  WindExposed,                            !- Wind Exposure
  ,                                       !- View Factor to Ground
  ,                                       !- Number of Vertices
  -26.9347048849634, 58.0557891618865, 2.4384, !- X,Y,Z Vertex 1 {m}
  -26.9347048849634, 46.7895631136661, 8.0715130241102, !- X,Y,Z Vertex 2 {m}
  -14.3386812381136, 46.7895631136661, 8.0715130241102, !- X,Y,Z Vertex 3 {m}
  -14.3386812381136, 58.0557891618865, 2.4384; !- X,Y,Z Vertex 4 {m}

OS:AdditionalProperties,
  {910e4cc4-aa1e-432e-a70d-7c1203bac46e}, !- Handle
  {56db3261-8b03-4e86-973d-da6a07afa83b}, !- Object Name
  Length,                                 !- Feature Name 1
  Double,                                 !- Feature Data Type 1
  41.325536899113608,                     !- Feature Value 1
  Width,                                  !- Feature Name 2
  Double,                                 !- Feature Data Type 2
  41.325536899113601,                     !- Feature Value 2
  Azimuth,                                !- Feature Name 3
  Integer,                                !- Feature Data Type 3
  0,                                      !- Feature Value 3
  Tilt,                                   !- Feature Name 4
  Double,                                 !- Feature Data Type 4
  0.5,                                    !- Feature Value 4
  SurfaceType,                            !- Feature Name 5
  String,                                 !- Feature Data Type 5
  Roof;                                   !- Feature Value 5

OS:ThermalZone,
  {ec9c2e3a-991d-47b3-b9fb-d8d817f28b25}, !- Handle
  attic - vented,                         !- Name
  1,                                      !- Multiplier
  ,                                       !- Ceiling Height {m}
  356.389957095237,                       !- Volume {m3}
  ,                                       !- Floor Area {m2}
  ,                                       !- Zone Inside Convection Algorithm
  ,                                       !- Zone Outside Convection Algorithm
  ,                                       !- Zone Conditioning Equipment List Name
  {450f7605-39bd-4be6-829d-f6e79c6fed2b}, !- Zone Air Inlet Port List
  {b05d6f6e-5783-40cb-a39f-f90ef1bcefdc}, !- Zone Air Exhaust Port List
  {605752a3-3507-4c85-b940-a709cdb4eaf2}, !- Zone Air Node Name
  {cf76cdaf-ffc9-4657-b125-e263bc77780a}, !- Zone Return Air Port List
  ,                                       !- Primary Daylighting Control Name
  ,                                       !- Fraction of Zone Controlled by Primary Daylighting Control
  ,                                       !- Secondary Daylighting Control Name
  ,                                       !- Fraction of Zone Controlled by Secondary Daylighting Control
  ,                                       !- Illuminance Map Name
  ,                                       !- Group Rendering Name
  ,                                       !- Thermostat Name
  No;                                     !- Use Ideal Air Loads

OS:Node,
  {fd09b66d-e197-4bdc-abcf-ce5072ca91f3}, !- Handle
  Node 2,                                 !- Name
  {605752a3-3507-4c85-b940-a709cdb4eaf2}, !- Inlet Port
  ;                                       !- Outlet Port

OS:Connection,
  {605752a3-3507-4c85-b940-a709cdb4eaf2}, !- Handle
  {ec9c2e3a-991d-47b3-b9fb-d8d817f28b25}, !- Source Object
  11,                                     !- Outlet Port
  {fd09b66d-e197-4bdc-abcf-ce5072ca91f3}, !- Target Object
  2;                                      !- Inlet Port

OS:PortList,
  {450f7605-39bd-4be6-829d-f6e79c6fed2b}, !- Handle
  {ec9c2e3a-991d-47b3-b9fb-d8d817f28b25}; !- HVAC Component

OS:PortList,
  {b05d6f6e-5783-40cb-a39f-f90ef1bcefdc}, !- Handle
  {ec9c2e3a-991d-47b3-b9fb-d8d817f28b25}; !- HVAC Component

OS:PortList,
  {cf76cdaf-ffc9-4657-b125-e263bc77780a}, !- Handle
  {ec9c2e3a-991d-47b3-b9fb-d8d817f28b25}; !- HVAC Component

OS:Sizing:Zone,
  {a5e085b3-762b-4bb3-ad48-9ff257698b77}, !- Handle
  {ec9c2e3a-991d-47b3-b9fb-d8d817f28b25}, !- Zone or ZoneList Name
  SupplyAirTemperature,                   !- Zone Cooling Design Supply Air Temperature Input Method
  14,                                     !- Zone Cooling Design Supply Air Temperature {C}
  11.11,                                  !- Zone Cooling Design Supply Air Temperature Difference {deltaC}
  SupplyAirTemperature,                   !- Zone Heating Design Supply Air Temperature Input Method
  40,                                     !- Zone Heating Design Supply Air Temperature {C}
  11.11,                                  !- Zone Heating Design Supply Air Temperature Difference {deltaC}
  0.0085,                                 !- Zone Cooling Design Supply Air Humidity Ratio {kg-H2O/kg-air}
  0.008,                                  !- Zone Heating Design Supply Air Humidity Ratio {kg-H2O/kg-air}
  ,                                       !- Zone Heating Sizing Factor
  ,                                       !- Zone Cooling Sizing Factor
  DesignDay,                              !- Cooling Design Air Flow Method
  ,                                       !- Cooling Design Air Flow Rate {m3/s}
  ,                                       !- Cooling Minimum Air Flow per Zone Floor Area {m3/s-m2}
  ,                                       !- Cooling Minimum Air Flow {m3/s}
  ,                                       !- Cooling Minimum Air Flow Fraction
  DesignDay,                              !- Heating Design Air Flow Method
  ,                                       !- Heating Design Air Flow Rate {m3/s}
  ,                                       !- Heating Maximum Air Flow per Zone Floor Area {m3/s-m2}
  ,                                       !- Heating Maximum Air Flow {m3/s}
  ,                                       !- Heating Maximum Air Flow Fraction
  No,                                     !- Account for Dedicated Outdoor Air System
  NeutralSupplyAir,                       !- Dedicated Outdoor Air System Control Strategy
  autosize,                               !- Dedicated Outdoor Air Low Setpoint Temperature for Design {C}
  autosize,                               !- Dedicated Outdoor Air High Setpoint Temperature for Design {C}
  Sensible Load Only No Latent Load,      !- Zone Load Sizing Method
  HumidityRatioDifference,                !- Zone Latent Cooling Design Supply Air Humidity Ratio Input Method
  ,                                       !- Zone Dehumidification Design Supply Air Humidity Ratio {kgWater/kgDryAir}
  0.005,                                  !- Zone Cooling Design Supply Air Humidity Ratio Difference {kgWater/kgDryAir}
  HumidityRatioDifference,                !- Zone Latent Heating Design Supply Air Humidity Ratio Input Method
  ,                                       !- Zone Humidification Design Supply Air Humidity Ratio {kgWater/kgDryAir}
  0.005,                                  !- Zone Humidification Design Supply Air Humidity Ratio Difference {kgWater/kgDryAir}
  ,                                       !- Zone Humidistat Dehumidification Set Point Schedule Name
  ,                                       !- Zone Humidistat Humidification Set Point Schedule Name
  ,                                       !- Design Zone Air Distribution Effectiveness in Cooling Mode
  ,                                       !- Design Zone Air Distribution Effectiveness in Heating Mode
  ,                                       !- Design Zone Secondary Recirculation Fraction {dimensionless}
  ,                                       !- Design Minimum Zone Ventilation Efficiency {dimensionless}
  Coincident;                             !- Sizing Option

OS:ZoneHVAC:EquipmentList,
  {73067570-2db2-43f7-9599-83d6838a06d7}, !- Handle
  Zone HVAC Equipment List 2,             !- Name
  {ec9c2e3a-991d-47b3-b9fb-d8d817f28b25}; !- Thermal Zone

OS:AdditionalProperties,
  {d3f39b7f-a850-49eb-b0c6-6d4a963fd82a}, !- Handle
  {ec9c2e3a-991d-47b3-b9fb-d8d817f28b25}, !- Object Name
  ObjectType,                             !- Feature Name 1
  String,                                 !- Feature Data Type 1
  attic - vented;                         !- Feature Value 1

OS:Space,
  {6af96338-8aa8-40d7-925e-853f043ecc69}, !- Handle
  attic - vented 1,                       !- Name
  ,                                       !- Space Type Name
  ,                                       !- Default Construction Set Name
  ,                                       !- Default Schedule Set Name
  ,                                       !- Direction of Relative North {deg}
  ,                                       !- X Origin {m}
  ,                                       !- Y Origin {m}
  ,                                       !- Z Origin {m}
  ,                                       !- Building Story Name
  {ec9c2e3a-991d-47b3-b9fb-d8d817f28b25}, !- Thermal Zone Name
  ,                                       !- Part of Total Floor Area
  ,                                       !- Design Specification Outdoor Air Object Name
  ,                                       !- Building Unit Name
  356.389957095237;                       !- Volume {m3}

OS:Material,
  {51de6dca-e79b-4e9e-960b-fe36c53674c3}, !- Handle
  asphalt or fiberglass shingles,         !- Name
  Rough,                                  !- Roughness
  0.00635,                                !- Thickness {m}
  0.162714,                               !- Conductivity {W/m-K}
  1121.4,                                 !- Density {kg/m3}
  1465.45,                                !- Specific Heat {J/kg-K}
  0.9,                                    !- Thermal Absorptance
  0.85,                                   !- Solar Absorptance
  0.85;                                   !- Visible Absorptance

OS:Material,
  {287d494e-ee2e-492c-99e6-862a02f51ab3}, !- Handle