
OS:Version,
  {957f03ef-46aa-485f-a345-f36309c5c52d}, !- Handle
  3.10.0;                                 !- Version Identifier

OS:SimulationControl,
  {88cfd779-5694-436a-98ed-d0ed095f11e2}, !- Handle
  ,                                       !- Do Zone Sizing Calculation
  ,                                       !- Do System Sizing Calculation
  ,                                       !- Do Plant Sizing Calculation
  No;                                     !- Run Simulation for Sizing Periods

OS:Timestep,
  {0f0ac81d-9bd8-4d34-afa4-04f987091deb}, !- Handle
  1;                                      !- Number of Timesteps per Hour

OS:ShadowCalculation,
  {7b6decd1-3156-4663-8b4e-a188434776c1}, !- Handle
  PolygonClipping,                        !- Shading Calculation Method
  ,                                       !- Shading Calculation Update Frequency Method
  20,                                     !- Shading Calculation Update Frequency
  200,                                    !- Maximum Figures in Shadow Overlap Calculations
  ,                                       !- Polygon Clipping Algorithm
  512,                                    !- Pixel Counting Resolution
  ,                                       !- Sky Diffuse Modeling Algorithm
  No,                                     !- Output External Shading Calculation Results
  No,                                     !- Disable Self-Shading Within Shading Zone Groups
  No;                                     !- Disable Self-Shading From Shading Zone Groups to Other Zones

OS:SurfaceConvectionAlgorithm:Outside,
  {a5f37ce3-77d4-4659-a46f-121c608d75b1}, !- Handle
  DOE-2;                                  !- Algorithm

OS:SurfaceConvectionAlgorithm:Inside,
  {efe54357-9f92-4c6a-8fd0-1c2dad538739}, !- Handle
  TARP;                                   !- Algorithm

OS:ZoneCapacitanceMultiplier:ResearchSpecial,
  {acbbd5ec-53de-4cb9-b6ef-6dad3e8f3eba}, !- Handle
  7,                                      !- Temperature Capacity Multiplier
  15,                                     !- Humidity Capacity Multiplier
  ;                                       !- Carbon Dioxide Capacity Multiplier

OS:ConvergenceLimits,
  {42fcbb57-b7b5-4f6a-94d0-2c996cb57656}, !- Handle
  0;                                      !- Minimum System Timestep {minutes}

OS:RunPeriod,
  {3d927c48-48fe-4494-80cf-a8fb0bfaca30}, !- Handle
  Run Period 1,                           !- Name
  1,                                      !- Begin Month
  1,                                      !- Begin Day of Month
  12,                                     !- End Month
  31,                                     !- End Day of Month
  ,                                       !- Use Weather File Holidays and Special Days
  ,                                       !- Use Weather File Daylight Saving Period
  ,                                       !- Apply Weekend Holiday Rule
  ,                                       !- Use Weather File Rain Indicators
  ,                                       !- Use Weather File Snow Indicators
  ;                                       !- Number of Times Runperiod to be Repeated

OS:PerformancePrecisionTradeoffs,
  {903a3d83-7426-47d6-a599-72a9e454017a}, !- Handle
  ,                                       !- Use Coil Direct Solutions
  CarrollMRT;                             !- Zone Radiant Exchange Algorithm

OS:WeatherFile,
  {86ef9a17-d348-4b8f-88a2-4ba2f9baf86a}, !- Handle
  Buffalo Niagara Intl Ap,                !- City
  NY,                                     !- State Province Region
  USA,                                    !- Country
  TMY3,                                   !- Data Source
  725280,                                 !- WMO Number
  42.93,                                  !- Latitude {deg}
  -78.73,                                 !- Longitude {deg}
  -5,                                     !- Time Zone {hr}
  215,                                    !- Elevation {m}
  /Users/nmoore/github/urbanopt-example-geojson-project/example_project/weather/USA_NY_Buffalo-Greater.Buffalo.Intl.AP.725280_TMY3.epw, !- Url
  6B50E0FF,                               !- Checksum
  ,                                       !- Start Date Actual Year
  Sunday;                                 !- Start Day of Week

OS:YearDescription,
  {7a53980e-60b8-4fac-a268-364e92b87ed3}, !- Handle
  2007,                                   !- Calendar Year
  ,                                       !- Day of Week for Start Day
  ;                                       !- Is Leap Year

OS:Site,
  {04759fd3-177a-46e5-94aa-758088603e04}, !- Handle
  Buffalo Niagara Intl Ap_NY,             !- Name
  42.93,                                  !- Latitude {deg}
  -78.73,                                 !- Longitude {deg}
  -5,                                     !- Time Zone {hr}
  215,                                    !- Elevation {m}
  Suburbs,                                !- Terrain
  Yes;                                    !- Keep Site Location Information

OS:RunPeriodControl:DaylightSavingTime,
  {0747948e-c23d-45f2-93f2-305311733882}, !- Handle
  Mar 12,                                 !- Start Date
  Nov 5;                                  !- End Date

OS:Site:GroundTemperature:Shallow,
  {de08082e-797c-4c6a-951c-57fab28aa78b}, !- Handle
  4.30207395723828,                       !- January Surface Ground Temperature {C}
  2.29327249652502,                       !- February Surface Ground Temperature {C}
  2.13240047156047,                       !- March Surface Ground Temperature {C}
  3.08567940719286,                       !- April Surface Ground Temperature {C}
  6.91256312497526,                       !- May Surface Ground Temperature {C}
  10.7216195949507,                       !- June Surface Ground Temperature {C}
  14.0238679822574,                       !- July Surface Ground Temperature {C}
  16.1157611184724,                       !- August Surface Ground Temperature {C}
  16.2934789303462,                       !- September Surface Ground Temperature {C}
  14.5920754632847,                       !- October Surface Ground Temperature {C}
  11.374036348653,                        !- November Surface Ground Temperature {C}
  7.68182621661674;                       !- December Surface Ground Temperature {C}

OS:ThermalZone,
  {8864a708-eecf-4456-8eb7-aed460caeb56}, !- Handle
  conditioned space,                      !- Name
  1,                                      !- Multiplier
  ,                                       !- Ceiling Height {m}
  692.06373070848,                        !- Volume {m3}
  ,                                       !- Floor Area {m2}
  ,                                       !- Zone Inside Convection Algorithm
  ,                                       !- Zone Outside Convection Algorithm
  ,                                       !- Zone Conditioning Equipment List Name
  {3ff57adf-8d84-4077-899c-ea7f695cf90c}, !- Zone Air Inlet Port List
  {59e65308-b346-46bd-b1e4-f44b573818c2}, !- Zone Air Exhaust Port List
  {6b78f181-f2a5-4d59-ae5f-3d28579874fd}, !- Zone Air Node Name
  {5ef8b002-708a-437f-ae69-0ea8d208bad1}, !- Zone Return Air Port List
  ,                                       !- Primary Daylighting Control Name
  ,                                       !- Fraction of Zone Controlled by Primary Daylighting Control
  ,                                       !- Secondary Daylighting Control Name
  ,                                       !- Fraction of Zone Controlled by Secondary Daylighting Control
  ,                                       !- Illuminance Map Name
  ,                                       !- Group Rendering Name
  {cbad8a6d-5ef4-43bf-82eb-3897715770af}, !- Thermostat Name
  No;                                     !- Use Ideal Air Loads

OS:Node,
  {49ac8b0e-12a9-4215-804a-51d5870e0582}, !- Handle
  Node 1,                                 !- Name
  {6b78f181-f2a5-4d59-ae5f-3d28579874fd}, !- Inlet Port
  ;                                       !- Outlet Port

OS:Connection,
  {6b78f181-f2a5-4d59-ae5f-3d28579874fd}, !- Handle
  {8864a708-eecf-4456-8eb7-aed460caeb56}, !- Source Object
  11,                                     !- Outlet Port
  {49ac8b0e-12a9-4215-804a-51d5870e0582}, !- Target Object
  2;                                      !- Inlet Port

OS:PortList,
  {3ff57adf-8d84-4077-899c-ea7f695cf90c}, !- Handle
  {8864a708-eecf-4456-8eb7-aed460caeb56}; !- HVAC Component

OS:PortList,
  {59e65308-b346-46bd-b1e4-f44b573818c2}, !- Handle
  {8864a708-eecf-4456-8eb7-aed460caeb56}; !- HVAC Component

OS:PortList,
  {5ef8b002-708a-437f-ae69-0ea8d208bad1}, !- Handle
  {8864a708-eecf-4456-8eb7-aed460caeb56}; !- HVAC Component

OS:Sizing:Zone,
  {1570ac9e-566e-4007-b3e9-8848fa31ff0b}, !- Handle
  {8864a708-eecf-4456-8eb7-aed460caeb56}, !- Zone or ZoneList Name
  SupplyAirTemperature,                   !- Zone Cooling Design Supply Air Temperature Input Method
  14,                                     !- Zone Cooling Design Supply Air Temperature {C}
  11.11,                                  !- Zone Cooling Design Supply Air Temperature Difference {deltaC}
  SupplyAirTemperature,                   !- Zone Heating Design Supply Air Temperature Input Method
  40,                                     !- Zone Heating Design Supply Air Temperature {C}
  11.11,                                  !- Zone Heating Design Supply Air Temperature Difference {deltaC}
  0.0085,                                 !- Zone Cooling Design Supply Air Humidity Ratio {kg-H2O/kg-air}
  0.008,                                  !- Zone Heating Design Supply Air Humidity Ratio {kg-H2O/kg-air}
  ,                                       !- Zone Heating Sizing Factor
  ,                                       !- Zone Cooling Sizing Factor
  DesignDay,                              !- Cooling Design Air Flow Method
  ,                                       !- Cooling Design Air Flow Rate {m3/s}
  ,                                       !- Cooling Minimum Air Flow per Zone Floor Area {m3/s-m2}
  ,                                       !- Cooling Minimum Air Flow {m3/s}
  ,                                       !- Cooling Minimum Air Flow Fraction
  DesignDay,                              !- Heating Design Air Flow Method
  ,                                       !- Heating Design Air Flow Rate {m3/s}
  ,                                       !- Heating Maximum Air Flow per Zone Floor Area {m3/s-m2}
  ,                                       !- Heating Maximum Air Flow {m3/s}
  ,                                       !- Heating Maximum Air Flow Fraction
  No,                                     !- Account for Dedicated Outdoor Air System
  NeutralSupplyAir,                       !- Dedicated Outdoor Air System Control Strategy
  autosize,                               !- Dedicated Outdoor Air Low Setpoint Temperature for Design {C}
  autosize,                               !- Dedicated Outdoor Air High Setpoint Temperature for Design {C}
  Sensible Load Only No Latent Load,      !- Zone Load Sizing Method
  HumidityRatioDifference,                !- Zone Latent Cooling Design Supply Air Humidity Ratio Input Method
  ,                                       !- Zone Dehumidification Design Supply Air Humidity Ratio {kgWater/kgDryAir}
  0.005,                                  !- Zone Cooling Design Supply Air Humidity Ratio Difference {kgWater/kgDryAir}
  HumidityRatioDifference,                !- Zone Latent Heating Design Supply Air Humidity Ratio Input Method
  ,                                       !- Zone Humidification Design Supply Air Humidity Ratio {kgWater/kgDryAir}
  0.005,                                  !- Zone Humidification Design Supply Air Humidity Ratio Difference {kgWater/kgDryAir}
  ,                                       !- Zone Humidistat Dehumidification Set Point Schedule Name
  ,                                       !- Zone Humidistat Humidification Set Point Schedule Name
  ,                                       !- Design Zone Air Distribution Effectiveness in Cooling Mode
  ,                                       !- Design Zone Air Distribution Effectiveness in Heating Mode
  ,                                       !- Design Zone Secondary Recirculation Fraction {dimensionless}
  ,                                       !- Design Minimum Zone Ventilation Efficiency {dimensionless}
  Coincident;                             !- Sizing Option

OS:ZoneHVAC:EquipmentList,
  {68d862a2-0a97-4e84-8094-4f7234fe963d}, !- Handle
  Zone HVAC Equipment List 1,             !- Name
  {8864a708-eecf-4456-8eb7-aed460caeb56}, !- Thermal Zone
  ,                                       !- Load Distribution Scheme
  {ff515eb5-28b3-49cb-bf9a-25c9415fe75f}, !- Zone Equipment 1
  1,                                      !- Zone Equipment Cooling Sequence 1
  1,                                      !- Zone Equipment Heating or No-Load Sequence 1
  {8e8dc2b9-41bc-475d-9857-6868e97b8738}, !- Zone Equipment Sequential Cooling Fraction Schedule Name 1
  {2d558032-8ef8-4f18-9205-0f6cd97a1b0c}; !- Zone Equipment Sequential Heating Fraction Schedule Name 1

OS:AdditionalProperties,
  {9d412890-2178-48ca-818d-79e461d0d0cb}, !- Handle
  {8864a708-eecf-4456-8eb7-aed460caeb56}, !- Object Name
  ObjectType,                             !- Feature Name 1
  String,                                 !- Feature Data Type 1
  conditioned space;                      !- Feature Value 1

OS:Space,
  {2bf98548-f8cc-4c16-8971-16d95a8c5a10}, !- Handle
  conditioned space 1,                    !- Name
  ,                                       !- Space Type Name
  ,                                       !- Default Construction Set Name
  ,                                       !- Default Schedule Set Name
  ,                                       !- Direction of Relative North {deg}
  ,                                       !- X Origin {m}
  ,                                       !- Y Origin {m}
  ,                                       !- Z Origin {m}
  ,                                       !- Building Story Name
  {8864a708-eecf-4456-8eb7-aed460caeb56}, !- Thermal Zone Name
  ,                                       !- Part of Total Floor Area
  ,                                       !- Design Specification Outdoor Air Object Name
  ,                                       !- Building Unit Name
  692.06373070848;                        !- Volume {m3}

OS:Schedule:Ruleset,
  {58fca50f-bec1-4458-b05f-ecc486906d33}, !- Handle
  heating setpoint,                       !- Name
  {eb8cc375-8d79-440e-80bf-a583e0834ac2}, !- Schedule Type Limits Name
  {1cadb78b-8248-4f35-9aca-ae76b9909288}; !- Default Day Schedule Name

OS:Schedule:Day,
  {1cadb78b-8248-4f35-9aca-ae76b9909288}, !- Handle
  heating setpoint default day,           !- Name
  {eb8cc375-8d79-440e-80bf-a583e0834ac2}, !- Schedule Type Limits Name
  ,                                       !- Interpolate to Timestep
  24,                                     !- Hour 1
  0,                                      !- Minute 1
  0;                                      !- Value Until Time 1

OS:Schedule:Rule,
  {5ef0a8d4-5eea-4412-8ab9-d6c3c2aa970c}, !- Handle
  heating setpoint allday rule,           !- Name
  {58fca50f-bec1-4458-b05f-ecc486906d33}, !- Schedule Ruleset Name
  0,                                      !- Rule Order
  {d8a96d3e-d1e2-44ce-ba98-c76811df2e83}, !- Day Schedule Name
  Yes,                                    !- Apply Sunday
  Yes,                                    !- Apply Monday
  Yes,                                    !- Apply Tuesday
  Yes,                                    !- Apply Wednesday
  Yes,                                    !- Apply Thursday
  Yes,                                    !- Apply Friday
  Yes,                                    !- Apply Saturday
  DateRange,                              !- Date Specification Type
  1,                                      !- Start Month
  1,                                      !- Start Day
  12,                                     !- End Month
  31;                                     !- End Day

OS:Schedule:Day,
  {d8a96d3e-d1e2-44ce-ba98-c76811df2e83}, !- Handle
  heating setpoint day,                   !- Name
  {eb8cc375-8d79-440e-80bf-a583e0834ac2}, !- Schedule Type Limits Name
  ,                                       !- Interpolate to Timestep
  24,                                     !- Hour 1
  0,                                      !- Minute 1
  20;                                     !- Value Until Time 1

OS:Schedule:Ruleset,
  {601b2c71-4372-4879-a616-17824a5adf1d}, !- Handle
  cooling setpoint,                       !- Name
  {eb8cc375-8d79-440e-80bf-a583e0834ac2}, !- Schedule Type Limits Name
  {bc3fb708-6bd5-4380-a6b2-31a0e7b2ec18}; !- Default Day Schedule Name

OS:Schedule:Day,
  {bc3fb708-6bd5-4380-a6b2-31a0e7b2ec18}, !- Handle
  cooling setpoint default day,           !- Name
  {eb8cc375-8d79-440e-80bf-a583e0834ac2}, !- Schedule Type Limits Name
  ,                                       !- Interpolate to Timestep
  24,                                     !- Hour 1
  0,                                      !- Minute 1
  0;                                      !- Value Until Time 1

OS:Schedule:Rule,
  {275d68a9-4172-4301-9da9-cc0017cef037}, !- Handle
  cooling setpoint allday rule,           !- Name
  {601b2c71-4372-4879-a616-17824a5adf1d}, !- Schedule Ruleset Name
  0,                                      !- Rule Order
  {d1e4979f-fad3-4965-b2f1-ae3031ad5379}, !- Day Schedule Name
  Yes,                                    !- Apply Sunday
  Yes,                                    !- Apply Monday
  Yes,                                    !- Apply Tuesday
  Yes,                                    !- Apply Wednesday
  Yes,                                    !- Apply Thursday
  Yes,                                    !- Apply Friday
  Yes,                                    !- Apply Saturday
  DateRange,                              !- Date Specification Type
  1,                                      !- Start Month
  1,                                      !- Start Day
  12,                                     !- End Month
  31;                                     !- End Day

OS:Schedule:Day,
  {d1e4979f-fad3-4965-b2f1-ae3031ad5379}, !- Handle
  cooling setpoint day,                   !- Name
  {eb8cc375-8d79-440e-80bf-a583e0834ac2}, !- Schedule Type Limits Name
  ,                                       !- Interpolate to Timestep
  24,                                     !- Hour 1
  0,                                      !- Minute 1
  25.5555555555556;                       !- Value Until Time 1

OS:ThermostatSetpoint:DualSetpoint,
  {cbad8a6d-5ef4-43bf-82eb-3897715770af}, !- Handle
  conditioned space temperature setpoint, !- Name
  {58fca50f-bec1-4458-b05f-ecc486906d33}, !- Heating Setpoint Temperature Schedule Name
  {601b2c71-4372-4879-a616-17824a5adf1d}, !- Cooling Setpoint Temperature Schedule Name
  0;                                      !- Temperature Difference Between Cutout And Setpoint {deltaC}

OS:ScheduleTypeLimits,
  {eb8cc375-8d79-440e-80bf-a583e0834ac2}, !- Handle
  Temperature,                            !- Name
  ,                                       !- Lower Limit Value
  ,                                       !- Upper Limit Value
  Continuous,                             !- Numeric Type
  Temperature;                            !- Unit Type

OS:Surface,
  {b6b756e7-47c8-4218-97d5-5e5e016c511d}, !- Handle
  Roof1,                                  !- Name
  RoofCeiling,                            !- Surface Type
  {2a069a32-a41d-4821-a41d-b1b701a7fc4a}, !- Construction Name
  {a78ec8c1-c942-403e-a691-d78c5e16808f}, !- Space Name
  Outdoors,                               !- Outside Boundary Condition
  ,                                       !- Outside Boundary Condition Object
  SunExposed,                             !- Sun Exposure
  WindExposed,                            !- Wind Exposure
  ,                                       !- View Factor to Ground
  ,                                       !- Number of Vertices
  -26.9347048849634, 58.0557891618865, 2.4384, !- X,Y,Z Vertex 1 {m}
  -26.9347048849634, 46.7895631136661, 8.0715130241102, !- X,Y,Z Vertex 2 {m}
  -14.3386812381136, 46.7895631136661, 8.0715130241102, !- X,Y,Z Vertex 3 {m}
  -14.3386812381136, 58.0557891618865, 2.4384; !- X,Y,Z Vertex 4 {m}

OS:AdditionalProperties,
  {4437bae2-4925-48f4-9e0d-f167ce89c4f2}, !- Handle
  {b6b756e7-47c8-4218-97d5-5e5e016c511d}, !- Object Name
  Length,                                 !- Feature Name 1
  Double,                                 !- Feature Data Type 1
  41.325536899113608,                     !- Feature Value 1
  Width,                                  !- Feature Name 2
  Double,                                 !- Feature Data Type 2
  41.325536899113601,                     !- Feature Value 2
  Azimuth,                                !- Feature Name 3
  Integer,                                !- Feature Data Type 3
  0,                                      !- Feature Value 3
  Tilt,                                   !- Feature Name 4
  Double,                                 !- Feature Data Type 4
  0.5,                                    !- Feature Value 4
  SurfaceType,                            !- Feature Name 5
  String,                                 !- Feature Data Type 5
  Roof;                                   !- Feature Value 5

OS:ThermalZone,
  {9363fcf0-fcf8-44f0-8bfc-ac73b66466e4}, !- Handle
  attic - vented,                         !- Name
  1,                                      !- Multiplier
  ,                                       !- Ceiling Height {m}
  356.390921899745,                       !- Volume {m3}
  ,                                       !- Floor Area {m2}
  ,                                       !- Zone Inside Convection Algorithm
  ,                                       !- Zone Outside Convection Algorithm
  ,                                       !- Zone Conditioning Equipment List Name
  {f8fe5eda-c1d1-4b33-ad3f-824662f82ed5}, !- Zone Air Inlet Port List
  {2ff7bb26-e3e2-40b3-876c-2cb532ec64e1}, !- Zone Air Exhaust Port List
  {e5338b01-57c6-4ae8-9c9b-a82a5c7a8743}, !- Zone Air Node Name
  {742225f3-bdf1-4ec8-899e-0c1594a703e2}, !- Zone Return Air Port List
  ,                                       !- Primary Daylighting Control Name
  ,                                       !- Fraction of Zone Controlled by Primary Daylighting Control
  ,                                       !- Secondary Daylighting Control Name
  ,                                       !- Fraction of Zone Controlled by Secondary Daylighting Control
  ,                                       !- Illuminance Map Name
  ,                                       !- Group Rendering Name
  ,                                       !- Thermostat Name
  No;                                     !- Use Ideal Air Loads

OS:Node,
  {6cc17c94-7083-4bf5-a7dc-b89a74c0b13c}, !- Handle
  Node 2,                                 !- Name
  {e5338b01-57c6-4ae8-9c9b-a82a5c7a8743}, !- Inlet Port
  ;                                       !- Outlet Port

OS:Connection,
  {e5338b01-57c6-4ae8-9c9b-a82a5c7a8743}, !- Handle
  {9363fcf0-fcf8-44f0-8bfc-ac73b66466e4}, !- Source Object
  11,                                     !- Outlet Port
  {6cc17c94-7083-4bf5-a7dc-b89a74c0b13c}, !- Target Object
  2;                                      !- Inlet Port

OS:PortList,
  {f8fe5eda-c1d1-4b33-ad3f-824662f82ed5}, !- Handle
  {9363fcf0-fcf8-44f0-8bfc-ac73b66466e4}; !- HVAC Component

OS:PortList,
  {2ff7bb26-e3e2-40b3-876c-2cb532ec64e1}, !- Handle
  {9363fcf0-fcf8-44f0-8bfc-ac73b66466e4}; !- HVAC Component

OS:PortList,
  {742225f3-bdf1-4ec8-899e-0c1594a703e2}, !- Handle
  {9363fcf0-fcf8-44f0-8bfc-ac73b66466e4}; !- HVAC Component

OS:Sizing:Zone,
  {79a4ba3c-854a-4578-96e9-c0a15d45f464}, !- Handle
  {9363fcf0-fcf8-44f0-8bfc-ac73b66466e4}, !- Zone or ZoneList Name
  SupplyAirTemperature,                   !- Zone Cooling Design Supply Air Temperature Input Method
  14,                                     !- Zone Cooling Design Supply Air Temperature {C}
  11.11,                                  !- Zone Cooling Design Supply Air Temperature Difference {deltaC}
  SupplyAirTemperature,                   !- Zone Heating Design Supply Air Temperature Input Method
  40,                                     !- Zone Heating Design Supply Air Temperature {C}
  11.11,                                  !- Zone Heating Design Supply Air Temperature Difference {deltaC}
  0.0085,                                 !- Zone Cooling Design Supply Air Humidity Ratio {kg-H2O/kg-air}
  0.008,                                  !- Zone Heating Design Supply Air Humidity Ratio {kg-H2O/kg-air}
  ,                                       !- Zone Heating Sizing Factor
  ,                                       !- Zone Cooling Sizing Factor
  DesignDay,                              !- Cooling Design Air Flow Method
  ,                                       !- Cooling Design Air Flow Rate {m3/s}
  ,                                       !- Cooling Minimum Air Flow per Zone Floor Area {m3/s-m2}
  ,                                       !- Cooling Minimum Air Flow {m3/s}
  ,                                       !- Cooling Minimum Air Flow Fraction
  DesignDay,                              !- Heating Design Air Flow Method
  ,                                       !- Heating Design Air Flow Rate {m3/s}
  ,                                       !- Heating Maximum Air Flow per Zone Floor Area {m3/s-m2}
  ,                                       !- Heating Maximum Air Flow {m3/s}
  ,                                       !- Heating Maximum Air Flow Fraction
  No,                                     !- Account for Dedicated Outdoor Air System
  NeutralSupplyAir,                       !- Dedicated Outdoor Air System Control Strategy
  autosize,                               !- Dedicated Outdoor Air Low Setpoint Temperature for Design {C}
  autosize,                               !- Dedicated Outdoor Air High Setpoint Temperature for Design {C}
  Sensible Load Only No Latent Load,      !- Zone Load Sizing Method
  HumidityRatioDifference,                !- Zone Latent Cooling Design Supply Air Humidity Ratio Input Method
  ,                                       !- Zone Dehumidification Design Supply Air Humidity Ratio {kgWater/kgDryAir}
  0.005,                                  !- Zone Cooling Design Supply Air Humidity Ratio Difference {kgWater/kgDryAir}
  HumidityRatioDifference,                !- Zone Latent Heating Design Supply Air Humidity Ratio Input Method
  ,                                       !- Zone Humidification Design Supply Air Humidity Ratio {kgWater/kgDryAir}
  0.005,                                  !- Zone Humidification Design Supply Air Humidity Ratio Difference {kgWater/kgDryAir}
  ,                                       !- Zone Humidistat Dehumidification Set Point Schedule Name
  ,                                       !- Zone Humidistat Humidification Set Point Schedule Name
  ,                                       !- Design Zone Air Distribution Effectiveness in Cooling Mode
  ,                                       !- Design Zone Air Distribution Effectiveness in Heating Mode
  ,                                       !- Design Zone Secondary Recirculation Fraction {dimensionless}
  ,                                       !- Design Minimum Zone Ventilation Efficiency {dimensionless}
  Coincident;                             !- Sizing Option

OS:ZoneHVAC:EquipmentList,
  {3568bd4f-bb27-41e1-b51e-24c1b65af379}, !- Handle
  Zone HVAC Equipment List 2,             !- Name
  {9363fcf0-fcf8-44f0-8bfc-ac73b66466e4}; !- Thermal Zone

OS:AdditionalProperties,
  {5c3d8452-c2d7-435f-a0cf-6ea9a52fe989}, !- Handle
  {9363fcf0-fcf8-44f0-8bfc-ac73b66466e4}, !- Object Name
  ObjectType,                             !- Feature Name 1
  String,                                 !- Feature Data Type 1
  attic - vented;                         !- Feature Value 1

OS:Space,
  {a78ec8c1-c942-403e-a691-d78c5e16808f}, !- Handle
  attic - vented 1,                       !- Name
  ,                                       !- Space Type Name
  ,                                       !- Default Construction Set Name
  ,                                       !- Default Schedule Set Name
  ,                                       !- Direction of Relative North {deg}
  ,                                       !- X Origin {m}
  ,                                       !- Y Origin {m}
  ,                                       !- Z Origin {m}
  ,                                       !- Building Story Name
  {9363fcf0-fcf8-44f0-8bfc-ac73b66466e4}, !- Thermal Zone Name
  ,                                       !- Part of Total Floor Area
  ,                                       !- Design Specification Outdoor Air Object Name
  ,                                       !- Building Unit Name
  356.390921899745;                       !- Volume {m3}

OS:Material,
  {f3b566d4-291a-4053-b071-f030aeb8df69}, !- Handle
  asphalt or fiberglass shingles,         !- Name
  Rough,                                  !- Roughness
  0.00635,                                !- Thickness {m}
  0.162714,                               !- Conductivity {W/m-K}
  1121.4,                                 !- Density {kg/m3}
  1465.45,                                !- Specific Heat {J/kg-K}
  0.9,                                    !- Thermal Absorptance
  0.85,                                   !- Solar Absorptance
  0.85;                                   !- Visible Absorptance

OS:Material,
  {7ff838b9-648c-4275-a01e-b49703443094}, !- Handle