
OS:Version,
  {505b02be-f602-4c4c-b8a5-6288d338c528}, !- Handle
  3.10.0;                                 !- Version Identifier

OS:SimulationControl,
  {d6e9748c-4985-4dc3-8d9e-eaa73dbe0a22}, !- Handle
  ,                                       !- Do Zone Sizing Calculation
  ,                                       !- Do System Sizing Calculation
  ,                                       !- Do Plant Sizing Calculation
  No;                                     !- Run Simulation for Sizing Periods

OS:Timestep,
  {8790c4b6-20dd-4d2a-a061-735793869c3d}, !- Handle
  1;                                      !- Number of Timesteps per Hour

OS:ShadowCalculation,
  {7a32e47d-9e45-463e-83fe-2a80c4dc5f69}, !- Handle
  PolygonClipping,                        !- Shading Calculation Method
  ,                                       !- Shading Calculation Update Frequency Method
  20,                                     !- Shading Calculation Update Frequency
  200,                                    !- Maximum Figures in Shadow Overlap Calculations
  ,                                       !- Polygon Clipping Algorithm
  512,                                    !- Pixel Counting Resolution
  ,                                       !- Sky Diffuse Modeling Algorithm
  No,                                     !- Output External Shading Calculation Results
  No,                                     !- Disable Self-Shading Within Shading Zone Groups
  No;                                     !- Disable Self-Shading From Shading Zone Groups to Other Zones

OS:SurfaceConvectionAlgorithm:Outside,
  {7313850f-47e2-4f9d-a5fb-9e6f74b14357}, !- Handle
  DOE-2;                                  !- Algorithm

OS:SurfaceConvectionAlgorithm:Inside,
  {62e31ac0-aa81-41c4-baed-f94e842590cb}, !- Handle
  TARP;                                   !- Algorithm

OS:ZoneCapacitanceMultiplier:ResearchSpecial,
  {b6bcd878-e27d-4ed1-ab3d-9a5048522cf8}, !- Handle
  7,                                      !- Temperature Capacity Multiplier
  15,                                     !- Humidity Capacity Multiplier
  ;                                       !- Carbon Dioxide Capacity Multiplier

OS:ConvergenceLimits,
  {eded855a-cb58-4631-a02e-37d688c77fc4}, !- Handle
  0;                                      !- Minimum System Timestep {minutes}

OS:RunPeriod,
  {fe61b4c7-8254-47f4-af2c-dd61537425e5}, !- Handle
  Run Period 1,                           !- Name
  1,                                      !- Begin Month
  1,                                      !- Begin Day of Month
  12,                                     !- End Month
  31,                                     !- End Day of Month
  ,                                       !- Use Weather File Holidays and Special Days
  ,                                       !- Use Weather File Daylight Saving Period
  ,                                       !- Apply Weekend Holiday Rule
  ,                                       !- Use Weather File Rain Indicators
  ,                                       !- Use Weather File Snow Indicators
  ;                                       !- Number of Times Runperiod to be Repeated

OS:PerformancePrecisionTradeoffs,
  {1dfd811d-c4b8-4365-8e05-9bc5a4cc9a4b}, !- Handle
  ,                                       !- Use Coil Direct Solutions
  CarrollMRT;                             !- Zone Radiant Exchange Algorithm

OS:WeatherFile,
  {ea0798fc-5edc-43a4-8123-c90e79641dd7}, !- Handle
  Buffalo Niagara Intl Ap,                !- City
  NY,                                     !- State Province Region
  USA,                                    !- Country
  TMY3,                                   !- Data Source
  725280,                                 !- WMO Number
  42.93,                                  !- Latitude {deg}
  -78.73,                                 !- Longitude {deg}
  -5,                                     !- Time Zone {hr}
  215,                                    !- Elevation {m}
  /Users/nmoore/github/urbanopt-example-geojson-project/example_project/weather/USA_NY_Buffalo-Greater.Buffalo.Intl.AP.725280_TMY3.epw, !- Url
  6B50E0FF,                               !- Checksum
  ,                                       !- Start Date Actual Year
  Sunday;                                 !- Start Day of Week

OS:YearDescription,
  {858e4a04-5853-44c3-8c74-72c6bd3e8313}, !- Handle
  2007,                                   !- Calendar Year
  ,                                       !- Day of Week for Start Day
  ;                                       !- Is Leap Year

OS:Site,
  {a5b79c37-5012-446f-9137-4bc047e45c51}, !- Handle
  Buffalo Niagara Intl Ap_NY,             !- Name
  42.93,                                  !- Latitude {deg}
  -78.73,                                 !- Longitude {deg}
  -5,                                     !- Time Zone {hr}
  215,                                    !- Elevation {m}
  Suburbs,                                !- Terrain
  Yes;                                    !- Keep Site Location Information

OS:RunPeriodControl:DaylightSavingTime,
  {4426eec1-3866-4104-a860-4fc969eac591}, !- Handle
  Mar 12,                                 !- Start Date
  Nov 5;                                  !- End Date

OS:Site:GroundTemperature:Shallow,
  {666d159f-01fd-4291-aa1c-657b36da8495}, !- Handle
  4.30207395723828,                       !- January Surface Ground Temperature {C}
  2.29327249652502,                       !- February Surface Ground Temperature {C}
  2.13240047156047,                       !- March Surface Ground Temperature {C}
  3.08567940719286,                       !- April Surface Ground Temperature {C}
  6.91256312497526,                       !- May Surface Ground Temperature {C}
  10.7216195949507,                       !- June Surface Ground Temperature {C}
  14.0238679822574,                       !- July Surface Ground Temperature {C}
  16.1157611184724,                       !- August Surface Ground Temperature {C}
  16.2934789303462,                       !- September Surface Ground Temperature {C}
  14.5920754632847,                       !- October Surface Ground Temperature {C}
  11.374036348653,                        !- November Surface Ground Temperature {C}
  7.68182621661674;                       !- December Surface Ground Temperature {C}

OS:ThermalZone,
  {ef3cac67-a27e-4148-81e8-19aba6378f9c}, !- Handle
  conditioned space,                      !- Name
  1,                                      !- Multiplier
  ,                                       !- Ceiling Height {m}
  346.03186535424,                        !- Volume {m3}
  ,                                       !- Floor Area {m2}
  ,                                       !- Zone Inside Convection Algorithm
  ,                                       !- Zone Outside Convection Algorithm
  ,                                       !- Zone Conditioning Equipment List Name
  {c9c72c2f-024e-49a9-9fdf-4adb48de61be}, !- Zone Air Inlet Port List
  {31ec837e-fe9a-4554-8fc5-3b7d35e9c368}, !- Zone Air Exhaust Port List
  {8ae4d1d1-681b-419a-bfbe-4d10a278695e}, !- Zone Air Node Name
  {e0653a6a-488f-425a-9b29-3f21261086f4}, !- Zone Return Air Port List
  ,                                       !- Primary Daylighting Control Name
  ,                                       !- Fraction of Zone Controlled by Primary Daylighting Control
  ,                                       !- Secondary Daylighting Control Name
  ,                                       !- Fraction of Zone Controlled by Secondary Daylighting Control
  ,                                       !- Illuminance Map Name
  ,                                       !- Group Rendering Name
  {f2b0244b-cb5b-4a16-8fa9-a1ce29082eb2}, !- Thermostat Name
  No;                                     !- Use Ideal Air Loads

OS:Node,
  {002aa1d6-3ae3-4ff7-802d-022bdcf15737}, !- Handle
  Node 1,                                 !- Name
  {8ae4d1d1-681b-419a-bfbe-4d10a278695e}, !- Inlet Port
  ;                                       !- Outlet Port

OS:Connection,
  {8ae4d1d1-681b-419a-bfbe-4d10a278695e}, !- Handle
  {ef3cac67-a27e-4148-81e8-19aba6378f9c}, !- Source Object
  11,                                     !- Outlet Port
  {002aa1d6-3ae3-4ff7-802d-022bdcf15737}, !- Target Object
  2;                                      !- Inlet Port

OS:PortList,
  {c9c72c2f-024e-49a9-9fdf-4adb48de61be}, !- Handle
  {ef3cac67-a27e-4148-81e8-19aba6378f9c}, !- HVAC Component
  {61de3d25-1619-4573-baa3-3a42d9535625}; !- Port 1

OS:PortList,
  {31ec837e-fe9a-4554-8fc5-3b7d35e9c368}, !- Handle
  {ef3cac67-a27e-4148-81e8-19aba6378f9c}; !- HVAC Component

OS:PortList,
  {e0653a6a-488f-425a-9b29-3f21261086f4}, !- Handle
  {ef3cac67-a27e-4148-81e8-19aba6378f9c}, !- HVAC Component
  {81fdb24d-7fb4-4c76-b793-f9dd3dce9b8f}; !- Port 1

OS:Sizing:Zone,
  {01822139-c5d6-43b9-8ef6-7c0762313c78}, !- Handle
  {ef3cac67-a27e-4148-81e8-19aba6378f9c}, !- Zone or ZoneList Name
  SupplyAirTemperature,                   !- Zone Cooling Design Supply Air Temperature Input Method
  14,                                     !- Zone Cooling Design Supply Air Temperature {C}
  11.11,                                  !- Zone Cooling Design Supply Air Temperature Difference {deltaC}
  SupplyAirTemperature,                   !- Zone Heating Design Supply Air Temperature Input Method
  40,                                     !- Zone Heating Design Supply Air Temperature {C}
  11.11,                                  !- Zone Heating Design Supply Air Temperature Difference {deltaC}
  0.0085,                                 !- Zone Cooling Design Supply Air Humidity Ratio {kg-H2O/kg-air}
  0.008,                                  !- Zone Heating Design Supply Air Humidity Ratio {kg-H2O/kg-air}
  ,                                       !- Zone Heating Sizing Factor
  ,                                       !- Zone Cooling Sizing Factor
  DesignDay,                              !- Cooling Design Air Flow Method
  ,                                       !- Cooling Design Air Flow Rate {m3/s}
  ,                                       !- Cooling Minimum Air Flow per Zone Floor Area {m3/s-m2}
  ,                                       !- Cooling Minimum Air Flow {m3/s}
  ,                                       !- Cooling Minimum Air Flow Fraction
  DesignDay,                              !- Heating Design Air Flow Method
  ,                                       !- Heating Design Air Flow Rate {m3/s}
  ,                                       !- Heating Maximum Air Flow per Zone Floor Area {m3/s-m2}
  ,                                       !- Heating Maximum Air Flow {m3/s}
  ,                                       !- Heating Maximum Air Flow Fraction
  No,                                     !- Account for Dedicated Outdoor Air System
  NeutralSupplyAir,                       !- Dedicated Outdoor Air System Control Strategy
  autosize,                               !- Dedicated Outdoor Air Low Setpoint Temperature for Design {C}
  autosize,                               !- Dedicated Outdoor Air High Setpoint Temperature for Design {C}
  Sensible Load Only No Latent Load,      !- Zone Load Sizing Method
  HumidityRatioDifference,                !- Zone Latent Cooling Design Supply Air Humidity Ratio Input Method
  ,                                       !- Zone Dehumidification Design Supply Air Humidity Ratio {kgWater/kgDryAir}
  0.005,                                  !- Zone Cooling Design Supply Air Humidity Ratio Difference {kgWater/kgDryAir}
  HumidityRatioDifference,                !- Zone Latent Heating Design Supply Air Humidity Ratio Input Method
  ,                                       !- Zone Humidification Design Supply Air Humidity Ratio {kgWater/kgDryAir}
  0.005,                                  !- Zone Humidification Design Supply Air Humidity Ratio Difference {kgWater/kgDryAir}
  ,                                       !- Zone Humidistat Dehumidification Set Point Schedule Name
  ,                                       !- Zone Humidistat Humidification Set Point Schedule Name
  ,                                       !- Design Zone Air Distribution Effectiveness in Cooling Mode
  ,                                       !- Design Zone Air Distribution Effectiveness in Heating Mode
  ,                                       !- Design Zone Secondary Recirculation Fraction {dimensionless}
  ,                                       !- Design Minimum Zone Ventilation Efficiency {dimensionless}
  Coincident;                             !- Sizing Option

OS:ZoneHVAC:EquipmentList,
  {68447537-259b-4e68-bf43-e25cfa94f4e6}, !- Handle
  Zone HVAC Equipment List 1,             !- Name
  {ef3cac67-a27e-4148-81e8-19aba6378f9c}, !- Thermal Zone
  ,                                       !- Load Distribution Scheme
  {39a2c4aa-e414-4cfb-bdaa-73d69475d62d}, !- Zone Equipment 1
  1,                                      !- Zone Equipment Cooling Sequence 1
  1,                                      !- Zone Equipment Heating or No-Load Sequence 1
  {45b0cb34-5bdf-4d6f-9204-1d0c56655823}, !- Zone Equipment Sequential Cooling Fraction Schedule Name 1
  {9a12162b-9775-4aea-977f-ebb382964b34}; !- Zone Equipment Sequential Heating Fraction Schedule Name 1

OS:AdditionalProperties,
  {4dfcd293-c1c8-43a1-960d-8598fb0b3dfa}, !- Handle
  {ef3cac67-a27e-4148-81e8-19aba6378f9c}, !- Object Name
  ObjectType,                             !- Feature Name 1
  String,                                 !- Feature Data Type 1
  conditioned space;                      !- Feature Value 1

OS:Space,
  {4f7e8cb8-e939-4893-9ce8-0a2e123dfcef}, !- Handle
  conditioned space 1,                    !- Name
  ,                                       !- Space Type Name
  ,                                       !- Default Construction Set Name
  ,                                       !- Default Schedule Set Name
  ,                                       !- Direction of Relative North {deg}
  ,                                       !- X Origin {m}
  ,                                       !- Y Origin {m}
  ,                                       !- Z Origin {m}
  ,                                       !- Building Story Name
  {ef3cac67-a27e-4148-81e8-19aba6378f9c}, !- Thermal Zone Name
  ,                                       !- Part of Total Floor Area
  ,                                       !- Design Specification Outdoor Air Object Name
  ,                                       !- Building Unit Name
  346.03186535424;                        !- Volume {m3}

OS:Schedule:Ruleset,
  {452d1730-b2b7-4dca-b6ea-4408ba912d17}, !- Handle
  heating setpoint,                       !- Name
  {e3f6710d-e9ed-4895-b208-d2c7708ec664}, !- Schedule Type Limits Name
  {f1ac4815-5757-47e0-b724-8726dabbb11b}; !- Default Day Schedule Name

OS:Schedule:Day,
  {f1ac4815-5757-47e0-b724-8726dabbb11b}, !- Handle
  heating setpoint default day,           !- Name
  {e3f6710d-e9ed-4895-b208-d2c7708ec664}, !- Schedule Type Limits Name
  ,                                       !- Interpolate to Timestep
  24,                                     !- Hour 1
  0,                                      !- Minute 1
  0;                                      !- Value Until Time 1

OS:Schedule:Rule,
  {6934615c-8f78-4b7e-aa44-6790b47f7d5b}, !- Handle
  heating setpoint allday rule,           !- Name
  {452d1730-b2b7-4dca-b6ea-4408ba912d17}, !- Schedule Ruleset Name
  0,                                      !- Rule Order
  {1fb30e9b-7d21-4b50-b3ef-c61bce3af32e}, !- Day Schedule Name
  Yes,                                    !- Apply Sunday
  Yes,                                    !- Apply Monday
  Yes,                                    !- Apply Tuesday
  Yes,                                    !- Apply Wednesday
  Yes,                                    !- Apply Thursday
  Yes,                                    !- Apply Friday
  Yes,                                    !- Apply Saturday
  DateRange,                              !- Date Specification Type
  1,                                      !- Start Month
  1,                                      !- Start Day
  12,                                     !- End Month
  31;                                     !- End Day

OS:Schedule:Day,
  {1fb30e9b-7d21-4b50-b3ef-c61bce3af32e}, !- Handle
  heating setpoint day,                   !- Name
  {e3f6710d-e9ed-4895-b208-d2c7708ec664}, !- Schedule Type Limits Name
  ,                                       !- Interpolate to Timestep
  24,                                     !- Hour 1
  0,                                      !- Minute 1
  20;                                     !- Value Until Time 1

OS:Schedule:Ruleset,
  {02594514-9aad-4783-b314-e5da6551751d}, !- Handle
  cooling setpoint,                       !- Name
  {e3f6710d-e9ed-4895-b208-d2c7708ec664}, !- Schedule Type Limits Name
  {fc3a0443-1b3c-45c7-8d7c-673f1f4b5d2a}; !- Default Day Schedule Name

OS:Schedule:Day,
  {fc3a0443-1b3c-45c7-8d7c-673f1f4b5d2a}, !- Handle
  cooling setpoint default day,           !- Name
  {e3f6710d-e9ed-4895-b208-d2c7708ec664}, !- Schedule Type Limits Name
  ,                                       !- Interpolate to Timestep
  24,                                     !- Hour 1
  0,                                      !- Minute 1
  0;                                      !- Value Until Time 1

OS:Schedule:Rule,
  {149b2665-1e86-426b-970c-0834c6fffc05}, !- Handle
  cooling setpoint allday rule,           !- Name
  {02594514-9aad-4783-b314-e5da6551751d}, !- Schedule Ruleset Name
  0,                                      !- Rule Order
  {9f74f491-bfd8-4b57-8c8e-d4144bca5f5a}, !- Day Schedule Name
  Yes,                                    !- Apply Sunday
  Yes,                                    !- Apply Monday
  Yes,                                    !- Apply Tuesday
  Yes,                                    !- Apply Wednesday
  Yes,                                    !- Apply Thursday
  Yes,                                    !- Apply Friday
  Yes,                                    !- Apply Saturday
  DateRange,                              !- Date Specification Type
  1,                                      !- Start Month
  1,                                      !- Start Day
  12,                                     !- End Month
  31;                                     !- End Day

OS:Schedule:Day,
  {9f74f491-bfd8-4b57-8c8e-d4144bca5f5a}, !- Handle
  cooling setpoint day,                   !- Name
  {e3f6710d-e9ed-4895-b208-d2c7708ec664}, !- Schedule Type Limits Name
  ,                                       !- Interpolate to Timestep
  24,                                     !- Hour 1
  0,                                      !- Minute 1
  25.5555555555556;                       !- Value Until Time 1

OS:ThermostatSetpoint:DualSetpoint,
  {f2b0244b-cb5b-4a16-8fa9-a1ce29082eb2}, !- Handle
  conditioned space temperature setpoint, !- Name
  {452d1730-b2b7-4dca-b6ea-4408ba912d17}, !- Heating Setpoint Temperature Schedule Name
  {02594514-9aad-4783-b314-e5da6551751d}, !- Cooling Setpoint Temperature Schedule Name
  0;                                      !- Temperature Difference Between Cutout And Setpoint {deltaC}

OS:ScheduleTypeLimits,
  {e3f6710d-e9ed-4895-b208-d2c7708ec664}, !- Handle
  Temperature,                            !- Name
  ,                                       !- Lower Limit Value
  ,                                       !- Upper Limit Value
  Continuous,                             !- Numeric Type
  Temperature;                            !- Unit Type

OS:Surface,
  {7700a3f1-5d56-4a29-a6f1-1319e91522fa}, !- Handle
  Roof1,                                  !- Name
  RoofCeiling,                            !- Surface Type
  {a46acf2f-d8bd-41b0-af21-98f1ae7013db}, !- Construction Name
  {4f7e8cb8-e939-4893-9ce8-0a2e123dfcef}, !- Space Name
  Outdoors,                               !- Outside Boundary Condition
  ,                                       !- Outside Boundary Condition Object
  SunExposed,                             !- Sun Exposure
  WindExposed,                            !- Wind Exposure
  ,                                       !- View Factor to Ground
  ,                                       !- Number of Vertices
  -0.687372254093932, 8.21936148257969, 2.4384, !- X,Y,Z Vertex 1 {m}
  -0.687372254093932, 0.252936645502524, 6.42161241853859, !- X,Y,Z Vertex 2 {m}
  8.21936148257969, 0.252936645502514, 6.42161241853859, !- X,Y,Z Vertex 3 {m}
  8.21936148257969, 8.21936148257968, 2.4384; !- X,Y,Z Vertex 4 {m}

OS:AdditionalProperties,
  {622ee28e-91fd-48d0-b8e5-fde68a01d7c3}, !- Handle
  {7700a3f1-5d56-4a29-a6f1-1319e91522fa}, !- Object Name
  Length,                                 !- Feature Name 1
  Double,                                 !- Feature Data Type 1
  29.221567377538118,                     !- Feature Value 1
  Width,                                  !- Feature Name 2
  Double,                                 !- Feature Data Type 2
  29.221567377538118,                     !- Feature Value 2
  Azimuth,                                !- Feature Name 3
  Integer,                                !- Feature Data Type 3
  0,                                      !- Feature Value 3
  Tilt,                                   !- Feature Name 4
  Double,                                 !- Feature Data Type 4
  0.5,                                    !- Feature Value 4
  SurfaceType,                            !- Feature Name 5
  String,                                 !- Feature Data Type 5
  Roof;                                   !- Feature Value 5

OS:Material,
  {c815de5e-9392-44d5-8241-8d961ca080f5}, !- Handle
  asphalt or fiberglass shingles,         !- Name
  Rough,                                  !- Roughness
  0.00635,                                !- Thickness {m}
  0.162714,                               !- Conductivity {W/m-K}
  1121.4,                                 !- Density {kg/m3}
  1465.45,                                !- Specific Heat {J/kg-K}
  0.9,                                    !- Thermal Absorptance
  0.85,                                   !- Solar Absorptance
  0.85;                                   !- Visible Absorptance

OS:Material,
  {904e1ba2-de32-4478-b3eb-21f4b63e398c}, !- Handle
  roof stud and cavity,                   !- Name
  Rough,                                  !- Roughness
  0.0889,                                 !- Thickness {m}
  0.468249472857624,                      !- Conductivity {W/m-K}
  50.32683,                               !- Density {kg/m3}
  1063.80987585548,                       !- Specific Heat {J/kg-K}
  0.9,                                    !- Thermal Absorptance
  0.7,                                    !- Solar Absorptance
  0.7;                                    !- Visible Absorptance

OS:Material,
  {f841aa6a-5b66-47e3-9d2a-826e53a2bc20}, !- Handle
  gypsum board,                           !- Name
  Rough,                                  !- Roughness
  0.00254,                                !- Thickness {m}
  0.1602906,                              !- Conductivity {W/m-K}
  801,                                    !- Density {kg/m3}
  837.4,                                  !- Specific Heat {J/kg-K}
  0.9,                                    !- Thermal Absorptance
  0.6,                                    !- Solar Absorptance
  0.6;                                    !- Visible Absorptance

OS:Construction,
  {a46acf2f-d8bd-41b0-af21-98f1ae7013db}, !- Handle
  Roof1 construction,                     !- Name
  ,                                       !- Surface Rendering Name
  {c815de5e-9392-44d5-8241-8d961ca080f5}, !- Layer 1
  {904e1ba2-de32-4478-b3eb-21f4b63e398c}, !- Layer 2
  {f841aa6a-5b66-47e3-9d2a-826e53a2bc20}; !- Layer 3

OS:Surface,
  {92ac841b-0241-4173-b3ce-dba6303d577b}, !- Handle
  Roof2,                                  !- Name
  RoofCeiling,                            !- Surface Type
  {a1b7d337-f630-42d9-b3fa-762b4462e957}, !- Construction Name
  {4f7e8cb8-e939-4893-9ce8-0a2e123dfcef}, !- Space Name
  Outdoors,                               !- Outside Boundary Condition
  ,                                       !- Outside Boundary Condition Object
  SunExposed,                             !- Sun Exposure
  WindExposed,                            !- Wind Exposure
  ,                                       !- View Factor to Ground
  ,                                       !- Number of Vertices
  0.687372254093932, -8.21936148257968, 2.4384, !- X,Y,Z Vertex 1 {m}
  0.687372254093932, -0.252936645502525, 6.42161241853859, !- X,Y,Z Vertex 2 {m}
  -8.21936148257969, -0.252936645502525, 6.42161241853859, !- X,Y,Z Vertex 3 {m}
  -8.21936148257969, -8.21936148257968, 2.4384; !- X,Y,Z Vertex 4 {m}

OS:AdditionalProperties,
  {7b433d0b-bdb1-4bf1-b10b-c66ff3896865}, !- Handle
  {92ac841b-0241-4173-b3ce-dba6303d577b}, !- Object Name
  Length,                                 !- Feature Name 1
  Double,                                 !- Feature Data Type 1
  29.221567377538118,                     !- Feature Value 1
  Width,                                  !- Feature Name 2
  Double,                                 !- Feature Data Type 2
  29.221567377538118,                     !- Feature Value 2
  Azimuth,                                !- Feature Name 3
  Integer,                                !- Feature Data Type 3
  180,                                    !- Feature Value 3
  Tilt,                                   !- Feature Name 4
  Double,                                 !- Feature Data Type 4
  0.5,                                    !- Feature Value 4
  SurfaceType,                            !- Feature Name 5
  String,                                 !- Feature Data Type 5
  Roof;                                   !- Feature Value 5

OS:Construction,
  {a1b7d337-f630-42d9-b3fa-762b4462e957}, !- Handle
  Roof2 construction,                     !- Name
  ,                                       !- Surface Rendering Name
  {c815de5e-9392-44d5-8241-8d961ca080f5}, !- Layer 1
  {904e1ba2-de32-4478-b3eb-21f4b63e398c}, !- Layer 2
  {f841aa6a-5b66-47e3-9d2a-826e53a2bc20}; !- Layer 3

OS:Surface,
  {c38e2e5b-022a-447d-9ad2-5a2f658813ac}, !- Handle
  Wall1,                                  !- Name
  Wall,                                   !- Surface Type
  {9bc1e7c3-38f2-4486-b378-e3c008f1e83e}, !- Construction Name
  {4f7e8cb8-e939-4893-9ce8-0a2e123dfcef}, !- Space Name
  Outdoors,                               !- Outside Boundary Condition
  ,                                       !- Outside Boundary Condition Object
  SunExposed,                             !- Sun Exposure
  WindExposed,                            !- Wind Exposure
  ,                                       !- View Factor to Ground
  ,                                       !- Number of Vertices
  -5.82835765409393, 8.21936148257969, 0, !- X,Y,Z Vertex 1 {m}
  -5.82835765409393, 8.21936148257969, 4.8768, !- X,Y,Z Vertex 2 {m}
  -1.61640265409393, 8.21936148257969, 4.8768, !- X,Y,Z Vertex 3 {m}
  -1.61640265409393, 8.21936148257969, 0; !- X,Y,Z Vertex 4 {m}

OS:AdditionalProperties,
  {051bda31-c0ae-4002-af6a-d24a3dc3cc08}, !- Handle
  {c38e2e5b-022a-447d-9ad2-5a2f658813ac}, !- Object Name
  Length,                                 !- Feature Name 1
  Double,                                 !- Feature Data Type 1
  13.81875,                               !- Feature Value 1
  Azimuth,                                !- Feature Name 2
  Integer,                                !- Feature Data Type 2
  0,                                      !- Feature Value 2
  Tilt,                                   !- Feature Name 3
  Double,                                 !- Feature Data Type 3
  90,                                     !- Feature Value 3
  SurfaceType,                            !- Feature Name 4
  String,                                 !- Feature Data Type 4
  Wall;                                   !- Feature Value 4

OS:Material,
  {069cbb32-b568-4ed6-8bce-b19ba31a5764}, !- Handle
  wood siding,                            !- Name
  Rough,                                  !- Roughness
  0.0254,                                 !- Thickness {m}
  0.1024175,                              !- Conductivity {W/m-K}
  544.68,                                 !- Density {kg/m3}
  1172.36,                                !- Specific Heat {J/kg-K}
  0.9,                                    !- Thermal Absorptance
  0.7,                                    !- Solar Absorptance
  0.7;                                    !- Visible Absorptance

OS:Material,
  {a16896d0-65f9-4bc5-af94-913d28183a69}, !- Handle
  osb sheathing 0.5 in.,                  !- Name
  Rough,                                  !- Roughness
  0.0127,                                 !- Thickness {m}
  0.1154577,                              !- Conductivity {W/m-K}
  512.64,                                 !- Density {kg/m3}
  1214.23,                                !- Specific Heat {J/kg-K}
  0.9,                                    !- Thermal Absorptance
  0.7,                                    !- Solar Absorptance
  0.7;                                    !- Visible Absorptance

OS:Material,
  {52d73918-2eb2-45a4-a686-828c36d9503f}, !- Handle
  wall stud and cavity,                   !- Name
  Rough,                                  !- Roughness
  0.1397,                                 !- Thickness {m}
  0.0929021674204099,                     !- Conductivity {W/m-K}
  139.0536,                               !- Density {kg/m3}
  1170.23755760369,                       !- Specific Heat {J/kg-K}
  0.9,                                    !- Thermal Absorptance
  0.7,                                    !- Solar Absorptance