
OS:Version,
  {b549c12f-96e1-4c53-b38f-60276b002169}, !- Handle
  3.9.0;                                  !- Version Identifier

OS:SimulationControl,
  {e9bba122-ea19-4f74-8fd5-4bb6a17dbe9a}, !- Handle
  ,                                       !- Do Zone Sizing Calculation
  ,                                       !- Do System Sizing Calculation
  ,                                       !- Do Plant Sizing Calculation
  No;                                     !- Run Simulation for Sizing Periods

OS:Timestep,
  {fc94f204-2e37-43fd-9cbf-ccc424edef13}, !- Handle
  1;                                      !- Number of Timesteps per Hour

OS:ShadowCalculation,
  {d456bf39-5784-488e-aa54-1c1aea58a3fb}, !- Handle
  PolygonClipping,                        !- Shading Calculation Method
  ,                                       !- Shading Calculation Update Frequency Method
  20,                                     !- Shading Calculation Update Frequency
  200,                                    !- Maximum Figures in Shadow Overlap Calculations
  ,                                       !- Polygon Clipping Algorithm
  512,                                    !- Pixel Counting Resolution
  ,                                       !- Sky Diffuse Modeling Algorithm
  No,                                     !- Output External Shading Calculation Results
  No,                                     !- Disable Self-Shading Within Shading Zone Groups
  No;                                     !- Disable Self-Shading From Shading Zone Groups to Other Zones

OS:SurfaceConvectionAlgorithm:Outside,
  {a1fa282f-9209-4b9a-b090-e19091621d01}, !- Handle
  DOE-2;                                  !- Algorithm

OS:SurfaceConvectionAlgorithm:Inside,
  {ea4519ba-f750-4d80-9e2b-45e3c2438d2f}, !- Handle
  TARP;                                   !- Algorithm

OS:ZoneCapacitanceMultiplier:ResearchSpecial,
  {41e59f3f-caa3-4c83-8248-4b1fe5e8f868}, !- Handle
  7,                                      !- Temperature Capacity Multiplier
  15,                                     !- Humidity Capacity Multiplier
  ;                                       !- Carbon Dioxide Capacity Multiplier

OS:ConvergenceLimits,
  {410ceb13-62ef-4d1f-b17b-593059d44f79}, !- Handle
  0;                                      !- Minimum System Timestep {minutes}

OS:RunPeriod,
  {77b46e46-8452-4ea6-833a-3b0dcb79c523}, !- Handle
  Run Period 1,                           !- Name
  1,                                      !- Begin Month
  1,                                      !- Begin Day of Month
  12,                                     !- End Month
  31,                                     !- End Day of Month
  ,                                       !- Use Weather File Holidays and Special Days
  ,                                       !- Use Weather File Daylight Saving Period
  ,                                       !- Apply Weekend Holiday Rule
  ,                                       !- Use Weather File Rain Indicators
  ,                                       !- Use Weather File Snow Indicators
  ;                                       !- Number of Times Runperiod to be Repeated

OS:PerformancePrecisionTradeoffs,
  {f4aae726-200a-4d3a-8949-a81c0adb63c4}, !- Handle
  ,                                       !- Use Coil Direct Solutions
  CarrollMRT;                             !- Zone Radiant Exchange Algorithm

OS:WeatherFile,
  {87c66054-cf6d-4f96-88a8-916c6568d8c4}, !- Handle
  Buffalo Niagara Intl Ap,                !- City
  NY,                                     !- State Province Region
  USA,                                    !- Country
  TMY3,                                   !- Data Source
  725280,                                 !- WMO Number
  42.93,                                  !- Latitude {deg}
  -78.73,                                 !- Longitude {deg}
  -5,                                     !- Time Zone {hr}
  215,                                    !- Elevation {m}
  /Users/nmoore/github/urbanopt-example-geojson-project/example_project/weather/USA_NY_Buffalo-Greater.Buffalo.Intl.AP.725280_TMY3.epw, !- Url
  6B50E0FF,                               !- Checksum
  ,                                       !- Start Date Actual Year
  Sunday;                                 !- Start Day of Week

OS:YearDescription,
  {106df78e-6fc9-47ab-8007-d1cf5b979806}, !- Handle
  2007,                                   !- Calendar Year
  ,                                       !- Day of Week for Start Day
  ;                                       !- Is Leap Year

OS:Site,
  {57fc5409-1543-4243-9f5f-bf384fbb661c}, !- Handle
  Buffalo Niagara Intl Ap_NY,             !- Name
  42.93,                                  !- Latitude {deg}
  -78.73,                                 !- Longitude {deg}
  -5,                                     !- Time Zone {hr}
  215,                                    !- Elevation {m}
  Suburbs,                                !- Terrain
  Yes;                                    !- Keep Site Location Information

OS:RunPeriodControl:DaylightSavingTime,
  {49f5ed19-35c0-4981-ba64-54cca02f8fc5}, !- Handle
  Mar 12,                                 !- Start Date
  Nov 5;                                  !- End Date

OS:Site:GroundTemperature:Shallow,
  {8ebbf95c-2249-47fb-bc73-7055779a0ff4}, !- Handle
  4.30207395723828,                       !- January Surface Ground Temperature {C}
  2.29327249652502,                       !- February Surface Ground Temperature {C}
  2.13240047156047,                       !- March Surface Ground Temperature {C}
  3.08567940719286,                       !- April Surface Ground Temperature {C}
  6.91256312497526,                       !- May Surface Ground Temperature {C}
  10.7216195949507,                       !- June Surface Ground Temperature {C}
  14.0238679822574,                       !- July Surface Ground Temperature {C}
  16.1157611184724,                       !- August Surface Ground Temperature {C}
  16.2934789303462,                       !- September Surface Ground Temperature {C}
  14.5920754632847,                       !- October Surface Ground Temperature {C}
  11.374036348653,                        !- November Surface Ground Temperature {C}
  7.68182621661674;                       !- December Surface Ground Temperature {C}

OS:ThermalZone,
  {909f5e11-4f7f-4ada-8069-c62b6abc5d23}, !- Handle
  conditioned space,                      !- Name
  1,                                      !- Multiplier
  ,                                       !- Ceiling Height {m}
  346.03186535424,                        !- Volume {m3}
  ,                                       !- Floor Area {m2}
  ,                                       !- Zone Inside Convection Algorithm
  ,                                       !- Zone Outside Convection Algorithm
  ,                                       !- Zone Conditioning Equipment List Name
  {ca4ea7ad-e840-4d9e-b6ec-23365ffd8bb9}, !- Zone Air Inlet Port List
  {33803cde-b13e-40f1-8b15-675909dbfbbd}, !- Zone Air Exhaust Port List
  {bbcb44c8-acea-4500-8049-5c0a65b4f31c}, !- Zone Air Node Name
  {ce47b36d-cd2c-495a-a00e-947589b55ea0}, !- Zone Return Air Port List
  ,                                       !- Primary Daylighting Control Name
  ,                                       !- Fraction of Zone Controlled by Primary Daylighting Control
  ,                                       !- Secondary Daylighting Control Name
  ,                                       !- Fraction of Zone Controlled by Secondary Daylighting Control
  ,                                       !- Illuminance Map Name
  ,                                       !- Group Rendering Name
  {85b91e8c-aa58-4032-afe9-8fcd67086b6b}, !- Thermostat Name
  No;                                     !- Use Ideal Air Loads

OS:Node,
  {ef55ad7d-e365-4791-bb05-14a4e1bf3456}, !- Handle
  Node 1,                                 !- Name
  {bbcb44c8-acea-4500-8049-5c0a65b4f31c}, !- Inlet Port
  ;                                       !- Outlet Port

OS:Connection,
  {bbcb44c8-acea-4500-8049-5c0a65b4f31c}, !- Handle
  {909f5e11-4f7f-4ada-8069-c62b6abc5d23}, !- Source Object
  11,                                     !- Outlet Port
  {ef55ad7d-e365-4791-bb05-14a4e1bf3456}, !- Target Object
  2;                                      !- Inlet Port

OS:PortList,
  {ca4ea7ad-e840-4d9e-b6ec-23365ffd8bb9}, !- Handle
  {909f5e11-4f7f-4ada-8069-c62b6abc5d23}, !- HVAC Component
  {df053f61-8fe5-4551-b516-67aaea8018a9}; !- Port 1

OS:PortList,
  {33803cde-b13e-40f1-8b15-675909dbfbbd}, !- Handle
  {909f5e11-4f7f-4ada-8069-c62b6abc5d23}; !- HVAC Component

OS:PortList,
  {ce47b36d-cd2c-495a-a00e-947589b55ea0}, !- Handle
  {909f5e11-4f7f-4ada-8069-c62b6abc5d23}, !- HVAC Component
  {30035b0d-2eb2-4d16-a255-ac38942cc8ac}; !- Port 1

OS:Sizing:Zone,
  {7173165e-adfd-4120-bc5b-1dea605e78db}, !- Handle
  {909f5e11-4f7f-4ada-8069-c62b6abc5d23}, !- Zone or ZoneList Name
  SupplyAirTemperature,                   !- Zone Cooling Design Supply Air Temperature Input Method
  14,                                     !- Zone Cooling Design Supply Air Temperature {C}
  11.11,                                  !- Zone Cooling Design Supply Air Temperature Difference {deltaC}
  SupplyAirTemperature,                   !- Zone Heating Design Supply Air Temperature Input Method
  40,                                     !- Zone Heating Design Supply Air Temperature {C}
  11.11,                                  !- Zone Heating Design Supply Air Temperature Difference {deltaC}
  0.0085,                                 !- Zone Cooling Design Supply Air Humidity Ratio {kg-H2O/kg-air}
  0.008,                                  !- Zone Heating Design Supply Air Humidity Ratio {kg-H2O/kg-air}
  ,                                       !- Zone Heating Sizing Factor
  ,                                       !- Zone Cooling Sizing Factor
  DesignDay,                              !- Cooling Design Air Flow Method
  ,                                       !- Cooling Design Air Flow Rate {m3/s}
  ,                                       !- Cooling Minimum Air Flow per Zone Floor Area {m3/s-m2}
  ,                                       !- Cooling Minimum Air Flow {m3/s}
  ,                                       !- Cooling Minimum Air Flow Fraction
  DesignDay,                              !- Heating Design Air Flow Method
  ,                                       !- Heating Design Air Flow Rate {m3/s}
  ,                                       !- Heating Maximum Air Flow per Zone Floor Area {m3/s-m2}
  ,                                       !- Heating Maximum Air Flow {m3/s}
  ,                                       !- Heating Maximum Air Flow Fraction
  No,                                     !- Account for Dedicated Outdoor Air System
  NeutralSupplyAir,                       !- Dedicated Outdoor Air System Control Strategy
  autosize,                               !- Dedicated Outdoor Air Low Setpoint Temperature for Design {C}
  autosize,                               !- Dedicated Outdoor Air High Setpoint Temperature for Design {C}
  Sensible Load Only No Latent Load,      !- Zone Load Sizing Method
  HumidityRatioDifference,                !- Zone Latent Cooling Design Supply Air Humidity Ratio Input Method
  ,                                       !- Zone Dehumidification Design Supply Air Humidity Ratio {kgWater/kgDryAir}
  0.005,                                  !- Zone Cooling Design Supply Air Humidity Ratio Difference {kgWater/kgDryAir}
  HumidityRatioDifference,                !- Zone Latent Heating Design Supply Air Humidity Ratio Input Method
  ,                                       !- Zone Humidification Design Supply Air Humidity Ratio {kgWater/kgDryAir}
  0.005,                                  !- Zone Humidification Design Supply Air Humidity Ratio Difference {kgWater/kgDryAir}
  ,                                       !- Zone Humidistat Dehumidification Set Point Schedule Name
  ,                                       !- Zone Humidistat Humidification Set Point Schedule Name
  ,                                       !- Design Zone Air Distribution Effectiveness in Cooling Mode
  ,                                       !- Design Zone Air Distribution Effectiveness in Heating Mode
  ,                                       !- Design Zone Secondary Recirculation Fraction {dimensionless}
  ,                                       !- Design Minimum Zone Ventilation Efficiency {dimensionless}
  Coincident;                             !- Sizing Option

OS:ZoneHVAC:EquipmentList,
  {a6cbdcd7-98df-4692-ba8c-2eafd1935f2b}, !- Handle
  Zone HVAC Equipment List 1,             !- Name
  {909f5e11-4f7f-4ada-8069-c62b6abc5d23}, !- Thermal Zone
  ,                                       !- Load Distribution Scheme
  {a1dd19da-2e1b-4184-9a47-49cbd36e26dc}, !- Zone Equipment 1
  1,                                      !- Zone Equipment Cooling Sequence 1
  1,                                      !- Zone Equipment Heating or No-Load Sequence 1
  {060b4005-65dc-4d69-889e-fce1bff51c95}, !- Zone Equipment Sequential Cooling Fraction Schedule Name 1
  {a9fadef2-1059-4490-b684-842ff62b68ea}; !- Zone Equipment Sequential Heating Fraction Schedule Name 1

OS:AdditionalProperties,
  {ca6d88ea-e509-49e9-a8f2-d8be5347285e}, !- Handle
  {909f5e11-4f7f-4ada-8069-c62b6abc5d23}, !- Object Name
  ObjectType,                             !- Feature Name 1
  String,                                 !- Feature Data Type 1
  conditioned space;                      !- Feature Value 1

OS:Space,
  {7a6299c1-e1ca-41a6-a4b8-f523cfe9bb06}, !- Handle
  conditioned space 1,                    !- Name
  ,                                       !- Space Type Name
  ,                                       !- Default Construction Set Name
  ,                                       !- Default Schedule Set Name
  ,                                       !- Direction of Relative North {deg}
  ,                                       !- X Origin {m}
  ,                                       !- Y Origin {m}
  ,                                       !- Z Origin {m}
  ,                                       !- Building Story Name
  {909f5e11-4f7f-4ada-8069-c62b6abc5d23}, !- Thermal Zone Name
  ,                                       !- Part of Total Floor Area
  ,                                       !- Design Specification Outdoor Air Object Name
  ,                                       !- Building Unit Name
  346.03186535424;                        !- Volume {m3}

OS:Schedule:Ruleset,
  {a27ce4d5-1eb4-4cc3-9bda-461c8f455665}, !- Handle
  heating setpoint,                       !- Name
  {1dae1dfb-e09e-482a-ae12-0faeb412bac1}, !- Schedule Type Limits Name
  {bdb99ec8-feed-4f5a-bebe-efbc755c4237}; !- Default Day Schedule Name

OS:Schedule:Day,
  {bdb99ec8-feed-4f5a-bebe-efbc755c4237}, !- Handle
  heating setpoint default day,           !- Name
  {1dae1dfb-e09e-482a-ae12-0faeb412bac1}, !- Schedule Type Limits Name
  ,                                       !- Interpolate to Timestep
  24,                                     !- Hour 1
  0,                                      !- Minute 1
  0;                                      !- Value Until Time 1

OS:Schedule:Rule,
  {eb8d1fc5-7280-4f23-8bdc-1b00b7fd8211}, !- Handle
  heating setpoint allday rule,           !- Name
  {a27ce4d5-1eb4-4cc3-9bda-461c8f455665}, !- Schedule Ruleset Name
  0,                                      !- Rule Order
  {d1e4eb5f-6a8b-432f-8905-c5369489a3c2}, !- Day Schedule Name
  Yes,                                    !- Apply Sunday
  Yes,                                    !- Apply Monday
  Yes,                                    !- Apply Tuesday
  Yes,                                    !- Apply Wednesday
  Yes,                                    !- Apply Thursday
  Yes,                                    !- Apply Friday
  Yes,                                    !- Apply Saturday
  DateRange,                              !- Date Specification Type
  1,                                      !- Start Month
  1,                                      !- Start Day
  12,                                     !- End Month
  31;                                     !- End Day

OS:Schedule:Day,
  {d1e4eb5f-6a8b-432f-8905-c5369489a3c2}, !- Handle
  heating setpoint day,                   !- Name
  {1dae1dfb-e09e-482a-ae12-0faeb412bac1}, !- Schedule Type Limits Name
  ,                                       !- Interpolate to Timestep
  24,                                     !- Hour 1
  0,                                      !- Minute 1
  20;                                     !- Value Until Time 1

OS:Schedule:Ruleset,
  {524e2e0e-597e-40b6-905e-7c83e22930c7}, !- Handle
  cooling setpoint,                       !- Name
  {1dae1dfb-e09e-482a-ae12-0faeb412bac1}, !- Schedule Type Limits Name
  {3c5896aa-3830-4fd3-99d5-e1dee0b64ec0}; !- Default Day Schedule Name

OS:Schedule:Day,
  {3c5896aa-3830-4fd3-99d5-e1dee0b64ec0}, !- Handle
  cooling setpoint default day,           !- Name
  {1dae1dfb-e09e-482a-ae12-0faeb412bac1}, !- Schedule Type Limits Name
  ,                                       !- Interpolate to Timestep
  24,                                     !- Hour 1
  0,                                      !- Minute 1
  0;                                      !- Value Until Time 1

OS:Schedule:Rule,
  {9b086168-2b46-4968-8ae6-0267e5ee3633}, !- Handle
  cooling setpoint allday rule,           !- Name
  {524e2e0e-597e-40b6-905e-7c83e22930c7}, !- Schedule Ruleset Name
  0,                                      !- Rule Order
  {4b8ff177-3d4c-408d-b36a-a48766c9c85e}, !- Day Schedule Name
  Yes,                                    !- Apply Sunday
  Yes,                                    !- Apply Monday
  Yes,                                    !- Apply Tuesday
  Yes,                                    !- Apply Wednesday
  Yes,                                    !- Apply Thursday
  Yes,                                    !- Apply Friday
  Yes,                                    !- Apply Saturday
  DateRange,                              !- Date Specification Type
  1,                                      !- Start Month
  1,                                      !- Start Day
  12,                                     !- End Month
  31;                                     !- End Day

OS:Schedule:Day,
  {4b8ff177-3d4c-408d-b36a-a48766c9c85e}, !- Handle
  cooling setpoint day,                   !- Name
  {1dae1dfb-e09e-482a-ae12-0faeb412bac1}, !- Schedule Type Limits Name
  ,                                       !- Interpolate to Timestep
  24,                                     !- Hour 1
  0,                                      !- Minute 1
  25.5555555555556;                       !- Value Until Time 1

OS:ThermostatSetpoint:DualSetpoint,
  {85b91e8c-aa58-4032-afe9-8fcd67086b6b}, !- Handle
  conditioned space temperature setpoint, !- Name
  {a27ce4d5-1eb4-4cc3-9bda-461c8f455665}, !- Heating Setpoint Temperature Schedule Name
  {524e2e0e-597e-40b6-905e-7c83e22930c7}, !- Cooling Setpoint Temperature Schedule Name
  0;                                      !- Temperature Difference Between Cutout And Setpoint {deltaC}

OS:ScheduleTypeLimits,
  {1dae1dfb-e09e-482a-ae12-0faeb412bac1}, !- Handle
  Temperature,                            !- Name
  ,                                       !- Lower Limit Value
  ,                                       !- Upper Limit Value
  Continuous,                             !- Numeric Type
  Temperature;                            !- Unit Type

OS:Surface,
  {a7ef4a4e-4e5b-4a8f-aa7a-cbeb8013c2e6}, !- Handle
  Roof1,                                  !- Name
  RoofCeiling,                            !- Surface Type
  {5b184a67-3f06-47de-a6aa-21d2e95ce914}, !- Construction Name
  {7a6299c1-e1ca-41a6-a4b8-f523cfe9bb06}, !- Space Name
  Outdoors,                               !- Outside Boundary Condition
  ,                                       !- Outside Boundary Condition Object
  SunExposed,                             !- Sun Exposure
  WindExposed,                            !- Wind Exposure
  ,                                       !- View Factor to Ground
  ,                                       !- Number of Vertices
  -0.687372254093932, 8.21936148257969, 2.4384, !- X,Y,Z Vertex 1 {m}
  -0.687372254093932, 0.252936645502524, 6.42161241853859, !- X,Y,Z Vertex 2 {m}
  8.21936148257969, 0.252936645502514, 6.42161241853859, !- X,Y,Z Vertex 3 {m}
  8.21936148257969, 8.21936148257968, 2.4384; !- X,Y,Z Vertex 4 {m}

OS:AdditionalProperties,
  {11ad2bf8-c172-412a-af1c-8dddf655825c}, !- Handle
  {a7ef4a4e-4e5b-4a8f-aa7a-cbeb8013c2e6}, !- Object Name
  Length,                                 !- Feature Name 1
  Double,                                 !- Feature Data Type 1
  29.221567377538118,                     !- Feature Value 1
  Width,                                  !- Feature Name 2
  Double,                                 !- Feature Data Type 2
  29.221567377538118,                     !- Feature Value 2
  Azimuth,                                !- Feature Name 3
  Integer,                                !- Feature Data Type 3
  0,                                      !- Feature Value 3
  Tilt,                                   !- Feature Name 4
  Double,                                 !- Feature Data Type 4
  0.5,                                    !- Feature Value 4
  SurfaceType,                            !- Feature Name 5
  String,                                 !- Feature Data Type 5
  Roof;                                   !- Feature Value 5

OS:Material,
  {2b3d0d08-f696-4391-b3a2-cc19a4f113f6}, !- Handle
  asphalt or fiberglass shingles,         !- Name
  Rough,                                  !- Roughness
  0.00635,                                !- Thickness {m}
  0.162714,                               !- Conductivity {W/m-K}
  1121.4,                                 !- Density {kg/m3}
  1465.45,                                !- Specific Heat {J/kg-K}
  0.9,                                    !- Thermal Absorptance
  0.85,                                   !- Solar Absorptance
  0.85;                                   !- Visible Absorptance

OS:Material,
  {e17a71ed-7d4c-444f-a496-5471aab04801}, !- Handle
  roof stud and cavity,                   !- Name
  Rough,                                  !- Roughness
  0.0889,                                 !- Thickness {m}
  0.468249472857624,                      !- Conductivity {W/m-K}
  50.32683,                               !- Density {kg/m3}
  1063.80987585548,                       !- Specific Heat {J/kg-K}
  0.9,                                    !- Thermal Absorptance
  0.7,                                    !- Solar Absorptance
  0.7;                                    !- Visible Absorptance

OS:Material,
  {91949b3b-744b-4f32-940f-0fbc2f63be6d}, !- Handle
  gypsum board,                           !- Name
  Rough,                                  !- Roughness
  0.00254,                                !- Thickness {m}
  0.1602906,                              !- Conductivity {W/m-K}
  801,                                    !- Density {kg/m3}
  837.4,                                  !- Specific Heat {J/kg-K}
  0.9,                                    !- Thermal Absorptance
  0.6,                                    !- Solar Absorptance
  0.6;                                    !- Visible Absorptance

OS:Construction,
  {5b184a67-3f06-47de-a6aa-21d2e95ce914}, !- Handle
  Roof1 construction,                     !- Name
  ,                                       !- Surface Rendering Name
  {2b3d0d08-f696-4391-b3a2-cc19a4f113f6}, !- Layer 1
  {e17a71ed-7d4c-444f-a496-5471aab04801}, !- Layer 2
  {91949b3b-744b-4f32-940f-0fbc2f63be6d}; !- Layer 3

OS:Surface,
  {45f9053f-7103-469e-8903-6f2706eb41d2}, !- Handle
  Roof2,                                  !- Name
  RoofCeiling,                            !- Surface Type
  {aad8d671-b0b0-4440-ba9d-d3b675ed2f0c}, !- Construction Name
  {7a6299c1-e1ca-41a6-a4b8-f523cfe9bb06}, !- Space Name
  Outdoors,                               !- Outside Boundary Condition
  ,                                       !- Outside Boundary Condition Object
  SunExposed,                             !- Sun Exposure
  WindExposed,                            !- Wind Exposure
  ,                                       !- View Factor to Ground
  ,                                       !- Number of Vertices
  0.687372254093932, -8.21936148257968, 2.4384, !- X,Y,Z Vertex 1 {m}
  0.687372254093932, -0.252936645502525, 6.42161241853859, !- X,Y,Z Vertex 2 {m}
  -8.21936148257969, -0.252936645502525, 6.42161241853859, !- X,Y,Z Vertex 3 {m}
  -8.21936148257969, -8.21936148257968, 2.4384; !- X,Y,Z Vertex 4 {m}

OS:AdditionalProperties,
  {d34849d3-15f4-443e-92db-8090fdbde3a8}, !- Handle
  {45f9053f-7103-469e-8903-6f2706eb41d2}, !- Object Name
  Length,                                 !- Feature Name 1
  Double,                                 !- Feature Data Type 1
  29.221567377538118,                     !- Feature Value 1
  Width,                                  !- Feature Name 2
  Double,                                 !- Feature Data Type 2
  29.221567377538118,                     !- Feature Value 2
  Azimuth,                                !- Feature Name 3
  Integer,                                !- Feature Data Type 3
  180,                                    !- Feature Value 3
  Tilt,                                   !- Feature Name 4
  Double,                                 !- Feature Data Type 4
  0.5,                                    !- Feature Value 4
  SurfaceType,                            !- Feature Name 5
  String,                                 !- Feature Data Type 5
  Roof;                                   !- Feature Value 5

OS:Construction,
  {aad8d671-b0b0-4440-ba9d-d3b675ed2f0c}, !- Handle
  Roof2 construction,                     !- Name
  ,                                       !- Surface Rendering Name
  {2b3d0d08-f696-4391-b3a2-cc19a4f113f6}, !- Layer 1
  {e17a71ed-7d4c-444f-a496-5471aab04801}, !- Layer 2
  {91949b3b-744b-4f32-940f-0fbc2f63be6d}; !- Layer 3

OS:Surface,
  {75fe7cda-aaa8-417d-89ed-b026dd3da808}, !- Handle
  Wall1,                                  !- Name
  Wall,                                   !- Surface Type
  {44aec29d-00ba-44c9-b191-56fa65f79317}, !- Construction Name
  {7a6299c1-e1ca-41a6-a4b8-f523cfe9bb06}, !- Space Name
  Outdoors,                               !- Outside Boundary Condition
  ,                                       !- Outside Boundary Condition Object
  SunExposed,                             !- Sun Exposure
  WindExposed,                            !- Wind Exposure
  ,                                       !- View Factor to Ground
  ,                                       !- Number of Vertices
  -5.82835765409393, 8.21936148257969, 0, !- X,Y,Z Vertex 1 {m}
  -5.82835765409393, 8.21936148257969, 4.8768, !- X,Y,Z Vertex 2 {m}
  -1.61640265409393, 8.21936148257969, 4.8768, !- X,Y,Z Vertex 3 {m}
  -1.61640265409393, 8.21936148257969, 0; !- X,Y,Z Vertex 4 {m}

OS:AdditionalProperties,
  {a3616991-922c-48ea-a00b-106ae03ef49e}, !- Handle
  {75fe7cda-aaa8-417d-89ed-b026dd3da808}, !- Object Name
  Length,                                 !- Feature Name 1
  Double,                                 !- Feature Data Type 1
  13.81875,                               !- Feature Value 1
  Azimuth,                                !- Feature Name 2
  Integer,                                !- Feature Data Type 2
  0,                                      !- Feature Value 2
  Tilt,                                   !- Feature Name 3
  Double,                                 !- Feature Data Type 3
  90,                                     !- Feature Value 3
  SurfaceType,                            !- Feature Name 4
  String,                                 !- Feature Data Type 4
  Wall;                                   !- Feature Value 4

OS:Material,
  {0c1d111f-b911-4248-b574-a2f98142f757}, !- Handle
  wood siding,                            !- Name
  Rough,                                  !- Roughness
  0.0254,                                 !- Thickness {m}
  0.1024175,                              !- Conductivity {W/m-K}
  544.68,                                 !- Density {kg/m3}
  1172.36,                                !- Specific Heat {J/kg-K}
  0.9,                                    !- Thermal Absorptance
  0.7,                                    !- Solar Absorptance
  0.7;                                    !- Visible Absorptance

OS:Material,
  {f3a1ace7-f314-46ae-bc90-5f3b407e45e8}, !- Handle
  osb sheathing 0.5 in.,                  !- Name
  Rough,                                  !- Roughness
  0.0127,                                 !- Thickness {m}
  0.1154577,                              !- Conductivity {W/m-K}
  512.64,                                 !- Density {kg/m3}
  1214.23,                                !- Specific Heat {J/kg-K}
  0.9,                                    !- Thermal Absorptance
  0.7,                                    !- Solar Absorptance
  0.7;                                    !- Visible Absorptance

OS:Material,
  {78ad82ba-ffc8-419a-a398-24151d5b7edf}, !- Handle
  wall stud and cavity,                   !- Name
  Rough,                                  !- Roughness
  0.1397,                                 !- Thickness {m}
  0.0929021674204099,                     !- Conductivity {W/m-K}
  139.0536,                               !- Density {kg/m3}
  1170.23755760369,                       !- Specific Heat {J/kg-K}
  0.9,                                    !- Thermal Absorptance
  0.7,                                    !- Solar Absorptance