
OS:Version,
  {23a4a441-0e71-4631-aa3c-75c696a4d838}, !- Handle
  3.10.0;                                 !- Version Identifier

OS:SimulationControl,
  {a47803a8-ee54-4741-9954-e1b948ca1275}, !- Handle
  ,                                       !- Do Zone Sizing Calculation
  ,                                       !- Do System Sizing Calculation
  ,                                       !- Do Plant Sizing Calculation
  No;                                     !- Run Simulation for Sizing Periods

OS:Timestep,
  {9e4e5305-d17e-4197-891a-7263158e0d65}, !- Handle
  1;                                      !- Number of Timesteps per Hour

OS:ShadowCalculation,
  {049e6361-a961-4ee4-9956-271790a2762e}, !- Handle
  PolygonClipping,                        !- Shading Calculation Method
  ,                                       !- Shading Calculation Update Frequency Method
  20,                                     !- Shading Calculation Update Frequency
  200,                                    !- Maximum Figures in Shadow Overlap Calculations
  ,                                       !- Polygon Clipping Algorithm
  512,                                    !- Pixel Counting Resolution
  ,                                       !- Sky Diffuse Modeling Algorithm
  No,                                     !- Output External Shading Calculation Results
  No,                                     !- Disable Self-Shading Within Shading Zone Groups
  No;                                     !- Disable Self-Shading From Shading Zone Groups to Other Zones

OS:SurfaceConvectionAlgorithm:Outside,
  {b7596444-317e-412b-865e-afd4acc16e66}, !- Handle
  DOE-2;                                  !- Algorithm

OS:SurfaceConvectionAlgorithm:Inside,
  {8e9d68db-ec24-4773-bf67-8144b192f5e7}, !- Handle
  TARP;                                   !- Algorithm

OS:ZoneCapacitanceMultiplier:ResearchSpecial,
  {48553d7f-04e4-4261-94cc-3db410de4e82}, !- Handle
  7,                                      !- Temperature Capacity Multiplier
  15,                                     !- Humidity Capacity Multiplier
  ;                                       !- Carbon Dioxide Capacity Multiplier

OS:ConvergenceLimits,
  {60c7cf93-4fe7-4d22-882e-2a909174112a}, !- Handle
  0;                                      !- Minimum System Timestep {minutes}

OS:RunPeriod,
  {00e659b1-c4a6-4073-a926-db8e271143ad}, !- Handle
  Run Period 1,                           !- Name
  1,                                      !- Begin Month
  1,                                      !- Begin Day of Month
  12,                                     !- End Month
  31,                                     !- End Day of Month
  ,                                       !- Use Weather File Holidays and Special Days
  ,                                       !- Use Weather File Daylight Saving Period
  ,                                       !- Apply Weekend Holiday Rule
  ,                                       !- Use Weather File Rain Indicators
  ,                                       !- Use Weather File Snow Indicators
  ;                                       !- Number of Times Runperiod to be Repeated

OS:PerformancePrecisionTradeoffs,
  {03808c51-3c98-41f5-990b-ef8b14739067}, !- Handle
  ,                                       !- Use Coil Direct Solutions
  CarrollMRT;                             !- Zone Radiant Exchange Algorithm

OS:WeatherFile,
  {8572794b-732b-4509-8f46-5f65b111a540}, !- Handle
  Buffalo Niagara Intl Ap,                !- City
  NY,                                     !- State Province Region
  USA,                                    !- Country
  TMY3,                                   !- Data Source
  725280,                                 !- WMO Number
  42.93,                                  !- Latitude {deg}
  -78.73,                                 !- Longitude {deg}
  -5,                                     !- Time Zone {hr}
  215,                                    !- Elevation {m}
  /Users/nmoore/github/urbanopt-example-geojson-project/example_project/weather/USA_NY_Buffalo-Greater.Buffalo.Intl.AP.725280_TMY3.epw, !- Url
  6B50E0FF,                               !- Checksum
  ,                                       !- Start Date Actual Year
  Sunday;                                 !- Start Day of Week

OS:YearDescription,
  {6384f095-7fca-4736-9526-fb09ee3bcbe0}, !- Handle
  2007,                                   !- Calendar Year
  ,                                       !- Day of Week for Start Day
  ;                                       !- Is Leap Year

OS:Site,
  {910f3b7b-834e-4429-8c5c-cd8b524dad71}, !- Handle
  Buffalo Niagara Intl Ap_NY,             !- Name
  42.93,                                  !- Latitude {deg}
  -78.73,                                 !- Longitude {deg}
  -5,                                     !- Time Zone {hr}
  215,                                    !- Elevation {m}
  Suburbs,                                !- Terrain
  Yes;                                    !- Keep Site Location Information

OS:RunPeriodControl:DaylightSavingTime,
  {5011ae05-fe02-4260-96fb-156e1fe3ecb0}, !- Handle
  Mar 12,                                 !- Start Date
  Nov 5;                                  !- End Date

OS:Site:GroundTemperature:Shallow,
  {804fabf7-cd45-4ed6-b2e9-4d5eae303c70}, !- Handle
  4.30207395723828,                       !- January Surface Ground Temperature {C}
  2.29327249652502,                       !- February Surface Ground Temperature {C}
  2.13240047156047,                       !- March Surface Ground Temperature {C}
  3.08567940719286,                       !- April Surface Ground Temperature {C}
  6.91256312497526,                       !- May Surface Ground Temperature {C}
  10.7216195949507,                       !- June Surface Ground Temperature {C}
  14.0238679822574,                       !- July Surface Ground Temperature {C}
  16.1157611184724,                       !- August Surface Ground Temperature {C}
  16.2934789303462,                       !- September Surface Ground Temperature {C}
  14.5920754632847,                       !- October Surface Ground Temperature {C}
  11.374036348653,                        !- November Surface Ground Temperature {C}
  7.68182621661674;                       !- December Surface Ground Temperature {C}

OS:ThermalZone,
  {f075705c-69c4-4077-929b-df915e4ef43c}, !- Handle
  conditioned space,                      !- Name
  1,                                      !- Multiplier
  ,                                       !- Ceiling Height {m}
  951.587629724161,                       !- Volume {m3}
  ,                                       !- Floor Area {m2}
  ,                                       !- Zone Inside Convection Algorithm
  ,                                       !- Zone Outside Convection Algorithm
  ,                                       !- Zone Conditioning Equipment List Name
  {7f986b0c-7675-470f-b751-2b2f83c47414}, !- Zone Air Inlet Port List
  {51648436-21e9-4723-a572-eb545c3ad1e2}, !- Zone Air Exhaust Port List
  {834c0c59-6280-49ff-b6b4-093def891fdf}, !- Zone Air Node Name
  {b4c2c92e-80d7-407c-b3c7-5948d7e223c1}, !- Zone Return Air Port List
  ,                                       !- Primary Daylighting Control Name
  ,                                       !- Fraction of Zone Controlled by Primary Daylighting Control
  ,                                       !- Secondary Daylighting Control Name
  ,                                       !- Fraction of Zone Controlled by Secondary Daylighting Control
  ,                                       !- Illuminance Map Name
  ,                                       !- Group Rendering Name
  {67cdea46-4c33-410d-94a9-fe8021028d29}, !- Thermostat Name
  No;                                     !- Use Ideal Air Loads

OS:Node,
  {84f6bb7c-8711-4f56-b395-aa9621481635}, !- Handle
  Node 1,                                 !- Name
  {834c0c59-6280-49ff-b6b4-093def891fdf}, !- Inlet Port
  ;                                       !- Outlet Port

OS:Connection,
  {834c0c59-6280-49ff-b6b4-093def891fdf}, !- Handle
  {f075705c-69c4-4077-929b-df915e4ef43c}, !- Source Object
  11,                                     !- Outlet Port
  {84f6bb7c-8711-4f56-b395-aa9621481635}, !- Target Object
  2;                                      !- Inlet Port

OS:PortList,
  {7f986b0c-7675-470f-b751-2b2f83c47414}, !- Handle
  {f075705c-69c4-4077-929b-df915e4ef43c}, !- HVAC Component
  {f5d76968-2f5f-4bc5-b2d6-408d4c361570}; !- Port 1

OS:PortList,
  {51648436-21e9-4723-a572-eb545c3ad1e2}, !- Handle
  {f075705c-69c4-4077-929b-df915e4ef43c}; !- HVAC Component

OS:PortList,
  {b4c2c92e-80d7-407c-b3c7-5948d7e223c1}, !- Handle
  {f075705c-69c4-4077-929b-df915e4ef43c}, !- HVAC Component
  {de0801e2-2e89-4cb1-8211-1df488db71d4}; !- Port 1

OS:Sizing:Zone,
  {22a29456-d21a-402e-8592-9066dcff9805}, !- Handle
  {f075705c-69c4-4077-929b-df915e4ef43c}, !- Zone or ZoneList Name
  SupplyAirTemperature,                   !- Zone Cooling Design Supply Air Temperature Input Method
  14,                                     !- Zone Cooling Design Supply Air Temperature {C}
  11.11,                                  !- Zone Cooling Design Supply Air Temperature Difference {deltaC}
  SupplyAirTemperature,                   !- Zone Heating Design Supply Air Temperature Input Method
  40,                                     !- Zone Heating Design Supply Air Temperature {C}
  11.11,                                  !- Zone Heating Design Supply Air Temperature Difference {deltaC}
  0.0085,                                 !- Zone Cooling Design Supply Air Humidity Ratio {kg-H2O/kg-air}
  0.008,                                  !- Zone Heating Design Supply Air Humidity Ratio {kg-H2O/kg-air}
  ,                                       !- Zone Heating Sizing Factor
  ,                                       !- Zone Cooling Sizing Factor
  DesignDay,                              !- Cooling Design Air Flow Method
  ,                                       !- Cooling Design Air Flow Rate {m3/s}
  ,                                       !- Cooling Minimum Air Flow per Zone Floor Area {m3/s-m2}
  ,                                       !- Cooling Minimum Air Flow {m3/s}
  ,                                       !- Cooling Minimum Air Flow Fraction
  DesignDay,                              !- Heating Design Air Flow Method
  ,                                       !- Heating Design Air Flow Rate {m3/s}
  ,                                       !- Heating Maximum Air Flow per Zone Floor Area {m3/s-m2}
  ,                                       !- Heating Maximum Air Flow {m3/s}
  ,                                       !- Heating Maximum Air Flow Fraction
  No,                                     !- Account for Dedicated Outdoor Air System
  NeutralSupplyAir,                       !- Dedicated Outdoor Air System Control Strategy
  autosize,                               !- Dedicated Outdoor Air Low Setpoint Temperature for Design {C}
  autosize,                               !- Dedicated Outdoor Air High Setpoint Temperature for Design {C}
  Sensible Load Only No Latent Load,      !- Zone Load Sizing Method
  HumidityRatioDifference,                !- Zone Latent Cooling Design Supply Air Humidity Ratio Input Method
  ,                                       !- Zone Dehumidification Design Supply Air Humidity Ratio {kgWater/kgDryAir}
  0.005,                                  !- Zone Cooling Design Supply Air Humidity Ratio Difference {kgWater/kgDryAir}
  HumidityRatioDifference,                !- Zone Latent Heating Design Supply Air Humidity Ratio Input Method
  ,                                       !- Zone Humidification Design Supply Air Humidity Ratio {kgWater/kgDryAir}
  0.005,                                  !- Zone Humidification Design Supply Air Humidity Ratio Difference {kgWater/kgDryAir}
  ,                                       !- Zone Humidistat Dehumidification Set Point Schedule Name
  ,                                       !- Zone Humidistat Humidification Set Point Schedule Name
  ,                                       !- Design Zone Air Distribution Effectiveness in Cooling Mode
  ,                                       !- Design Zone Air Distribution Effectiveness in Heating Mode
  ,                                       !- Design Zone Secondary Recirculation Fraction {dimensionless}
  ,                                       !- Design Minimum Zone Ventilation Efficiency {dimensionless}
  Coincident;                             !- Sizing Option

OS:ZoneHVAC:EquipmentList,
  {f2d7e4ab-db3f-48bb-b170-801b8745da6f}, !- Handle
  Zone HVAC Equipment List 1,             !- Name
  {f075705c-69c4-4077-929b-df915e4ef43c}, !- Thermal Zone
  ,                                       !- Load Distribution Scheme
  {89bb7918-f94a-429e-ab4d-d33f855ad584}, !- Zone Equipment 1
  1,                                      !- Zone Equipment Cooling Sequence 1
  1,                                      !- Zone Equipment Heating or No-Load Sequence 1
  {3c525c81-52fb-4534-8263-b7f87b1b01f2}, !- Zone Equipment Sequential Cooling Fraction Schedule Name 1
  {425533e0-e1c0-474f-ab97-6e81f432fca8}; !- Zone Equipment Sequential Heating Fraction Schedule Name 1

OS:AdditionalProperties,
  {d98e2754-6aa8-43c5-906f-b25981b2e12d}, !- Handle
  {f075705c-69c4-4077-929b-df915e4ef43c}, !- Object Name
  ObjectType,                             !- Feature Name 1
  String,                                 !- Feature Data Type 1
  conditioned space;                      !- Feature Value 1

OS:Space,
  {9a81a720-f50b-4a6e-8f58-915377818fc8}, !- Handle
  conditioned space 1,                    !- Name
  ,                                       !- Space Type Name
  ,                                       !- Default Construction Set Name
  ,                                       !- Default Schedule Set Name
  ,                                       !- Direction of Relative North {deg}
  ,                                       !- X Origin {m}
  ,                                       !- Y Origin {m}
  ,                                       !- Z Origin {m}
  ,                                       !- Building Story Name
  {f075705c-69c4-4077-929b-df915e4ef43c}, !- Thermal Zone Name
  ,                                       !- Part of Total Floor Area
  ,                                       !- Design Specification Outdoor Air Object Name
  ,                                       !- Building Unit Name
  951.587629724161;                       !- Volume {m3}

OS:Schedule:Ruleset,
  {a90b4573-b61c-4c25-bc1a-d9edcec173de}, !- Handle
  heating setpoint,                       !- Name
  {0e7a3915-4730-4f51-9687-df78425d24aa}, !- Schedule Type Limits Name
  {a1d2dda2-cbca-4f52-bcc8-6774a8b2aa8b}; !- Default Day Schedule Name

OS:Schedule:Day,
  {a1d2dda2-cbca-4f52-bcc8-6774a8b2aa8b}, !- Handle
  heating setpoint default day,           !- Name
  {0e7a3915-4730-4f51-9687-df78425d24aa}, !- Schedule Type Limits Name
  ,                                       !- Interpolate to Timestep
  24,                                     !- Hour 1
  0,                                      !- Minute 1
  0;                                      !- Value Until Time 1

OS:Schedule:Rule,
  {dfd72417-d7a3-4e40-8039-83bd987db9c8}, !- Handle
  heating setpoint allday rule,           !- Name
  {a90b4573-b61c-4c25-bc1a-d9edcec173de}, !- Schedule Ruleset Name
  0,                                      !- Rule Order
  {4e262b8f-a66f-4a11-9710-0809010ab9c3}, !- Day Schedule Name
  Yes,                                    !- Apply Sunday
  Yes,                                    !- Apply Monday
  Yes,                                    !- Apply Tuesday
  Yes,                                    !- Apply Wednesday
  Yes,                                    !- Apply Thursday
  Yes,                                    !- Apply Friday
  Yes,                                    !- Apply Saturday
  DateRange,                              !- Date Specification Type
  1,                                      !- Start Month
  1,                                      !- Start Day
  12,                                     !- End Month
  31;                                     !- End Day

OS:Schedule:Day,
  {4e262b8f-a66f-4a11-9710-0809010ab9c3}, !- Handle
  heating setpoint day,                   !- Name
  {0e7a3915-4730-4f51-9687-df78425d24aa}, !- Schedule Type Limits Name
  ,                                       !- Interpolate to Timestep
  24,                                     !- Hour 1
  0,                                      !- Minute 1
  20;                                     !- Value Until Time 1

OS:Schedule:Ruleset,
  {3a1a6b2a-4799-4b4b-8f93-e85d394ec860}, !- Handle
  cooling setpoint,                       !- Name
  {0e7a3915-4730-4f51-9687-df78425d24aa}, !- Schedule Type Limits Name
  {402859ca-c221-4899-8ae4-06b01d63759b}; !- Default Day Schedule Name

OS:Schedule:Day,
  {402859ca-c221-4899-8ae4-06b01d63759b}, !- Handle
  cooling setpoint default day,           !- Name
  {0e7a3915-4730-4f51-9687-df78425d24aa}, !- Schedule Type Limits Name
  ,                                       !- Interpolate to Timestep
  24,                                     !- Hour 1
  0,                                      !- Minute 1
  0;                                      !- Value Until Time 1

OS:Schedule:Rule,
  {9bd28552-93d8-49b0-8c82-2299bb879141}, !- Handle
  cooling setpoint allday rule,           !- Name
  {3a1a6b2a-4799-4b4b-8f93-e85d394ec860}, !- Schedule Ruleset Name
  0,                                      !- Rule Order
  {a52fd4a1-a7fb-4ac7-b7bb-d47d1b6999e1}, !- Day Schedule Name
  Yes,                                    !- Apply Sunday
  Yes,                                    !- Apply Monday
  Yes,                                    !- Apply Tuesday
  Yes,                                    !- Apply Wednesday
  Yes,                                    !- Apply Thursday
  Yes,                                    !- Apply Friday
  Yes,                                    !- Apply Saturday
  DateRange,                              !- Date Specification Type
  1,                                      !- Start Month
  1,                                      !- Start Day
  12,                                     !- End Month
  31;                                     !- End Day

OS:Schedule:Day,
  {a52fd4a1-a7fb-4ac7-b7bb-d47d1b6999e1}, !- Handle
  cooling setpoint day,                   !- Name
  {0e7a3915-4730-4f51-9687-df78425d24aa}, !- Schedule Type Limits Name
  ,                                       !- Interpolate to Timestep
  24,                                     !- Hour 1
  0,                                      !- Minute 1
  25.5555555555556;                       !- Value Until Time 1

OS:ThermostatSetpoint:DualSetpoint,
  {67cdea46-4c33-410d-94a9-fe8021028d29}, !- Handle
  conditioned space temperature setpoint, !- Name
  {a90b4573-b61c-4c25-bc1a-d9edcec173de}, !- Heating Setpoint Temperature Schedule Name
  {3a1a6b2a-4799-4b4b-8f93-e85d394ec860}, !- Cooling Setpoint Temperature Schedule Name
  0;                                      !- Temperature Difference Between Cutout And Setpoint {deltaC}

OS:ScheduleTypeLimits,
  {0e7a3915-4730-4f51-9687-df78425d24aa}, !- Handle
  Temperature,                            !- Name
  ,                                       !- Lower Limit Value
  ,                                       !- Upper Limit Value
  Continuous,                             !- Numeric Type
  Temperature;                            !- Unit Type

OS:Surface,
  {7d2f580d-410c-46b1-b693-e581d94e492b}, !- Handle
  Roof1,                                  !- Name
  RoofCeiling,                            !- Surface Type
  {f5cff4d4-3699-491c-8455-87aa85d8b957}, !- Construction Name
  {9a81a720-f50b-4a6e-8f58-915377818fc8}, !- Space Name
  Outdoors,                               !- Outside Boundary Condition
  ,                                       !- Outside Boundary Condition Object
  SunExposed,                             !- Sun Exposure
  WindExposed,                            !- Wind Exposure
  ,                                       !- View Factor to Ground
  ,                                       !- Number of Vertices
  -8.42346109387347, 8.42346109387347, 2.4384, !- X,Y,Z Vertex 1 {m}
  -8.42346109387347, -8.42346109387347, 2.4384, !- X,Y,Z Vertex 2 {m}
  8.42346109387347, -8.42346109387347, 2.4384, !- X,Y,Z Vertex 3 {m}
  8.42346109387347, 8.42346109387347, 2.4384; !- X,Y,Z Vertex 4 {m}

OS:AdditionalProperties,
  {81e0e16e-6973-4a0f-baa5-9cda47053b1c}, !- Handle
  {7d2f580d-410c-46b1-b693-e581d94e492b}, !- Object Name
  Length,                                 !- Feature Name 1
  Double,                                 !- Feature Data Type 1
  55.27205442174192,                      !- Feature Value 1
  Width,                                  !- Feature Name 2
  Double,                                 !- Feature Data Type 2
  55.272054421741913,                     !- Feature Value 2
  Azimuth,                                !- Feature Name 3
  Integer,                                !- Feature Data Type 3
  0,                                      !- Feature Value 3
  Tilt,                                   !- Feature Name 4
  Double,                                 !- Feature Data Type 4
  0,                                      !- Feature Value 4
  SurfaceType,                            !- Feature Name 5
  String,                                 !- Feature Data Type 5
  Roof;                                   !- Feature Value 5

OS:Material,
  {57e82a1f-6b1c-4d1d-ace6-9f5a85881d5d}, !- Handle
  asphalt or fiberglass shingles,         !- Name
  Rough,                                  !- Roughness
  0.00635,                                !- Thickness {m}
  0.162714,                               !- Conductivity {W/m-K}
  1121.4,                                 !- Density {kg/m3}
  1465.45,                                !- Specific Heat {J/kg-K}
  0.9,                                    !- Thermal Absorptance
  0.85,                                   !- Solar Absorptance
  0.85;                                   !- Visible Absorptance

OS:Material,
  {75718678-e7e2-419b-b3bf-48d04e2e500d}, !- Handle
  roof stud and cavity,                   !- Name
  Rough,                                  !- Roughness
  0.0889,                                 !- Thickness {m}
  0.491900632004487,                      !- Conductivity {W/m-K}
  50.32683,                               !- Density {kg/m3}
  1063.80987585548,                       !- Specific Heat {J/kg-K}
  0.9,                                    !- Thermal Absorptance
  0.7,                                    !- Solar Absorptance
  0.7;                                    !- Visible Absorptance

OS:Material,
  {fc5da7be-fa92-4213-a82c-64d85283a9b9}, !- Handle
  gypsum board,                           !- Name
  Rough,                                  !- Roughness
  0.00254,                                !- Thickness {m}
  0.1602906,                              !- Conductivity {W/m-K}
  801,                                    !- Density {kg/m3}
  837.4,                                  !- Specific Heat {J/kg-K}
  0.9,                                    !- Thermal Absorptance
  0.6,                                    !- Solar Absorptance
  0.6;                                    !- Visible Absorptance

OS:Construction,
  {f5cff4d4-3699-491c-8455-87aa85d8b957}, !- Handle
  Roof1 construction,                     !- Name
  ,                                       !- Surface Rendering Name
  {57e82a1f-6b1c-4d1d-ace6-9f5a85881d5d}, !- Layer 1
  {75718678-e7e2-419b-b3bf-48d04e2e500d}, !- Layer 2
  {fc5da7be-fa92-4213-a82c-64d85283a9b9}; !- Layer 3

OS:Surface,
  {345677fb-f9b3-497d-9850-28a754500dfc}, !- Handle
  Wall1,                                  !- Name
  Wall,                                   !- Surface Type
  {079e442c-44c2-4fc0-8a30-aa89ee81c908}, !- Construction Name
  {9a81a720-f50b-4a6e-8f58-915377818fc8}, !- Space Name
  Outdoors,                               !- Outside Boundary Condition
  ,                                       !- Outside Boundary Condition Object
  SunExposed,                             !- Sun Exposure
  WindExposed,                            !- Wind Exposure
  ,                                       !- View Factor to Ground
  ,                                       !- Number of Vertices
  -50.3642317384615, 51.2932621384616, 0, !- X,Y,Z Vertex 1 {m}
  -50.3642317384615, 51.2932621384616, 2.4384, !- X,Y,Z Vertex 2 {m}
  -30.8303617384615, 51.2932621384616, 2.4384, !- X,Y,Z Vertex 3 {m}
  -30.8303617384615, 51.2932621384616, 0; !- X,Y,Z Vertex 4 {m}

OS:AdditionalProperties,
  {71373de9-bcea-4475-af97-7250dd82e357}, !- Handle
  {345677fb-f9b3-497d-9850-28a754500dfc}, !- Object Name
  Length,                                 !- Feature Name 1
  Double,                                 !- Feature Data Type 1
  64.087499999999991,                     !- Feature Value 1
  Azimuth,                                !- Feature Name 2
  Integer,                                !- Feature Data Type 2
  0,                                      !- Feature Value 2
  Tilt,                                   !- Feature Name 3
  Double,                                 !- Feature Data Type 3
  90,                                     !- Feature Value 3
  SurfaceType,                            !- Feature Name 4
  String,                                 !- Feature Data Type 4
  Wall;                                   !- Feature Value 4

OS:Material,
  {8868b2a2-c123-4b2f-bf53-5787dc1471ef}, !- Handle
  wood siding,                            !- Name
  Rough,                                  !- Roughness
  0.0254,                                 !- Thickness {m}
  0.1024175,                              !- Conductivity {W/m-K}
  544.68,                                 !- Density {kg/m3}
  1172.36,                                !- Specific Heat {J/kg-K}
  0.9,                                    !- Thermal Absorptance
  0.7,                                    !- Solar Absorptance
  0.7;                                    !- Visible Absorptance

OS:Material,
  {ef223735-59d9-447e-89a3-0a51465b4dd3}, !- Handle
  osb sheathing 0.5 in.,                  !- Name
  Rough,                                  !- Roughness
  0.0127,                                 !- Thickness {m}
  0.1154577,                              !- Conductivity {W/m-K}
  512.64,                                 !- Density {kg/m3}
  1214.23,                                !- Specific Heat {J/kg-K}
  0.9,                                    !- Thermal Absorptance
  0.7,                                    !- Solar Absorptance
  0.7;                                    !- Visible Absorptance

OS:Material,
  {e95bac60-f37b-4c45-9914-cc01dcab95b2}, !- Handle
  wall stud and cavity,                   !- Name
  Rough,                                  !- Roughness
  0.1397,                                 !- Thickness {m}
  0.0929021674204099,                     !- Conductivity {W/m-K}
  139.0536,                               !- Density {kg/m3}
  1170.23755760369,                       !- Specific Heat {J/kg-K}
  0.9,                                    !- Thermal Absorptance
  0.7,                                    !- Solar Absorptance
  0.7;                                    !- Visible Absorptance

OS:Material,
  {e712ae82-4003-4e03-9cc4-0f6a8dc3a660}, !- Handle
  gypsum board 1,                         !- Name
  Rough,                                  !- Roughness
  0.0127,                                 !- Thickness {m}
  0.1602906,                              !- Conductivity {W/m-K}
  801,                                    !- Density {kg/m3}
  837.4,                                  !- Specific Heat {J/kg-K}
  0.9,                                    !- Thermal Absorptance
  0.6,                                    !- Solar Absorptance
  0.6;                                    !- Visible Absorptance

OS:Construction,
  {079e442c-44c2-4fc0-8a30-aa89ee81c908}, !- Handle
  Wall1 construction,                     !- Name
  ,                                       !- Surface Rendering Name
  {8868b2a2-c123-4b2f-bf53-5787dc1471ef}, !- Layer 1
  {ef223735-59d9-447e-89a3-0a51465b4dd3}, !- Layer 2
  {e95bac60-f37b-4c45-9914-cc01dcab95b2}, !- Layer 3
  {e712ae82-4003-4e03-9cc4-0f6a8dc3a660}; !- Layer 4

OS:Surface,
  {2f9af7fb-bf5f-4ca6-a59a-a2e2fee49932}, !- Handle
  Wall2,                                  !- Name
  Wall,                                   !- Surface Type
  {41a69190-8664-4e3b-9254-6f0c8466c133}, !- Construction Name
  {9a81a720-f50b-4a6e-8f58-915377818fc8}, !- Space Name
  Outdoors,                               !- Outside Boundary Condition
  ,                                       !- Outside Boundary Condition Object
  SunExposed,                             !- Sun Exposure
  WindExposed,                            !- Wind Exposure
  ,                                       !- View Factor to Ground
  ,                                       !- Number of Vertices
  51.2932621384616, -36.1953302, 0,       !- X,Y,Z Vertex 1 {m}
  51.2932621384616, -36.1953302, 2.4384,  !- X,Y,Z Vertex 2 {m}
  51.2932621384616, -45.9641702, 2.4384,  !- X,Y,Z Vertex 3 {m}
  51.2932621384616, -45.9641702, 0;       !- X,Y,Z Vertex 4 {m}

OS:AdditionalProperties,
  {08a4d7b6-8614-4d13-aa2b-23e2e9c77807}, !- Handle
  {2f9af7fb-bf5f-4ca6-a59a-a2e2fee49932}, !- Object Name
  Length,                                 !- Feature Name 1
  Double,                                 !- Feature Data Type 1
  32.049999999999997,                     !- Feature Value 1
  Azimuth,                                !- Feature Name 2