
OS:Version,
  {59950ce3-6606-4036-80c6-0b17ae4fbbc0}, !- Handle
  3.9.0;                                  !- Version Identifier

OS:SimulationControl,
  {fa59deb2-77a2-45c9-a6b8-101a684099db}, !- Handle
  ,                                       !- Do Zone Sizing Calculation
  ,                                       !- Do System Sizing Calculation
  ,                                       !- Do Plant Sizing Calculation
  No;                                     !- Run Simulation for Sizing Periods

OS:Timestep,
  {f918d404-2890-4d47-bd2d-a01c0f56363b}, !- Handle
  1;                                      !- Number of Timesteps per Hour

OS:ShadowCalculation,
  {fdc140a2-019b-4742-a00a-ec1b52798419}, !- Handle
  PolygonClipping,                        !- Shading Calculation Method
  ,                                       !- Shading Calculation Update Frequency Method
  20,                                     !- Shading Calculation Update Frequency
  200,                                    !- Maximum Figures in Shadow Overlap Calculations
  ,                                       !- Polygon Clipping Algorithm
  512,                                    !- Pixel Counting Resolution
  ,                                       !- Sky Diffuse Modeling Algorithm
  No,                                     !- Output External Shading Calculation Results
  No,                                     !- Disable Self-Shading Within Shading Zone Groups
  No;                                     !- Disable Self-Shading From Shading Zone Groups to Other Zones

OS:SurfaceConvectionAlgorithm:Outside,
  {2189ccd0-c5e1-4176-b269-48bf600ab4d4}, !- Handle
  DOE-2;                                  !- Algorithm

OS:SurfaceConvectionAlgorithm:Inside,
  {62b27cdb-462c-40e9-8e63-d58ad9e85654}, !- Handle
  TARP;                                   !- Algorithm

OS:ZoneCapacitanceMultiplier:ResearchSpecial,
  {aaa728ad-dc58-4646-9ee7-911d53b218c8}, !- Handle
  7,                                      !- Temperature Capacity Multiplier
  15,                                     !- Humidity Capacity Multiplier
  ;                                       !- Carbon Dioxide Capacity Multiplier

OS:ConvergenceLimits,
  {2b20f535-96d9-4751-ba12-e0fc50a2c417}, !- Handle
  0;                                      !- Minimum System Timestep {minutes}

OS:RunPeriod,
  {9c4fb7b9-8495-4066-883f-ecd3367f5dd7}, !- Handle
  Run Period 1,                           !- Name
  1,                                      !- Begin Month
  1,                                      !- Begin Day of Month
  12,                                     !- End Month
  31,                                     !- End Day of Month
  ,                                       !- Use Weather File Holidays and Special Days
  ,                                       !- Use Weather File Daylight Saving Period
  ,                                       !- Apply Weekend Holiday Rule
  ,                                       !- Use Weather File Rain Indicators
  ,                                       !- Use Weather File Snow Indicators
  ;                                       !- Number of Times Runperiod to be Repeated

OS:PerformancePrecisionTradeoffs,
  {560fff15-6094-496d-8964-5d6ce62339af}, !- Handle
  ,                                       !- Use Coil Direct Solutions
  CarrollMRT;                             !- Zone Radiant Exchange Algorithm

OS:WeatherFile,
  {f9037089-b6df-4353-86a1-e549fab4782a}, !- Handle
  Buffalo Niagara Intl Ap,                !- City
  NY,                                     !- State Province Region
  USA,                                    !- Country
  TMY3,                                   !- Data Source
  725280,                                 !- WMO Number
  42.93,                                  !- Latitude {deg}
  -78.73,                                 !- Longitude {deg}
  -5,                                     !- Time Zone {hr}
  215,                                    !- Elevation {m}
  /Users/nmoore/github/urbanopt-example-geojson-project/example_project/weather/USA_NY_Buffalo-Greater.Buffalo.Intl.AP.725280_TMY3.epw, !- Url
  6B50E0FF,                               !- Checksum
  ,                                       !- Start Date Actual Year
  Sunday;                                 !- Start Day of Week

OS:YearDescription,
  {6f0ab5da-795c-4ac5-aa47-7ef039909dd0}, !- Handle
  2007,                                   !- Calendar Year
  ,                                       !- Day of Week for Start Day
  ;                                       !- Is Leap Year

OS:Site,
  {3892c14b-eef2-4b46-902d-69412df9d2a0}, !- Handle
  Buffalo Niagara Intl Ap_NY,             !- Name
  42.93,                                  !- Latitude {deg}
  -78.73,                                 !- Longitude {deg}
  -5,                                     !- Time Zone {hr}
  215,                                    !- Elevation {m}
  Suburbs,                                !- Terrain
  Yes;                                    !- Keep Site Location Information

OS:RunPeriodControl:DaylightSavingTime,
  {0866099e-b41d-4339-9273-10a372d2031a}, !- Handle
  Mar 12,                                 !- Start Date
  Nov 5;                                  !- End Date

OS:Site:GroundTemperature:Shallow,
  {0922932c-a100-4599-a57d-666d0c98d546}, !- Handle
  4.30207395723828,                       !- January Surface Ground Temperature {C}
  2.29327249652502,                       !- February Surface Ground Temperature {C}
  2.13240047156047,                       !- March Surface Ground Temperature {C}
  3.08567940719286,                       !- April Surface Ground Temperature {C}
  6.91256312497526,                       !- May Surface Ground Temperature {C}
  10.7216195949507,                       !- June Surface Ground Temperature {C}
  14.0238679822574,                       !- July Surface Ground Temperature {C}
  16.1157611184724,                       !- August Surface Ground Temperature {C}
  16.2934789303462,                       !- September Surface Ground Temperature {C}
  14.5920754632847,                       !- October Surface Ground Temperature {C}
  11.374036348653,                        !- November Surface Ground Temperature {C}
  7.68182621661674;                       !- December Surface Ground Temperature {C}

OS:ThermalZone,
  {9630ac64-9a22-48bc-b645-7c5aee976e7b}, !- Handle
  conditioned space,                      !- Name
  1,                                      !- Multiplier
  ,                                       !- Ceiling Height {m}
  951.587629724161,                       !- Volume {m3}
  ,                                       !- Floor Area {m2}
  ,                                       !- Zone Inside Convection Algorithm
  ,                                       !- Zone Outside Convection Algorithm
  ,                                       !- Zone Conditioning Equipment List Name
  {25d9f2cc-562c-47bf-beb8-2a2b77e224a3}, !- Zone Air Inlet Port List
  {51c15fde-34a2-4d75-bcf3-241a50fd4e54}, !- Zone Air Exhaust Port List
  {594bbb25-0b20-46da-bc7b-ff4ae3d06748}, !- Zone Air Node Name
  {b5663c31-1346-48b3-b59d-46378f936964}, !- Zone Return Air Port List
  ,                                       !- Primary Daylighting Control Name
  ,                                       !- Fraction of Zone Controlled by Primary Daylighting Control
  ,                                       !- Secondary Daylighting Control Name
  ,                                       !- Fraction of Zone Controlled by Secondary Daylighting Control
  ,                                       !- Illuminance Map Name
  ,                                       !- Group Rendering Name
  {eed15610-75e7-4cfc-9860-94cb9b9fb5d9}, !- Thermostat Name
  No;                                     !- Use Ideal Air Loads

OS:Node,
  {858d5044-9f47-4d1c-895a-dbfa4f1a8d22}, !- Handle
  Node 1,                                 !- Name
  {594bbb25-0b20-46da-bc7b-ff4ae3d06748}, !- Inlet Port
  ;                                       !- Outlet Port

OS:Connection,
  {594bbb25-0b20-46da-bc7b-ff4ae3d06748}, !- Handle
  {9630ac64-9a22-48bc-b645-7c5aee976e7b}, !- Source Object
  11,                                     !- Outlet Port
  {858d5044-9f47-4d1c-895a-dbfa4f1a8d22}, !- Target Object
  2;                                      !- Inlet Port

OS:PortList,
  {25d9f2cc-562c-47bf-beb8-2a2b77e224a3}, !- Handle
  {9630ac64-9a22-48bc-b645-7c5aee976e7b}, !- HVAC Component
  {6c412a27-14e1-4ab9-b19d-10f876ba4c31}; !- Port 1

OS:PortList,
  {51c15fde-34a2-4d75-bcf3-241a50fd4e54}, !- Handle
  {9630ac64-9a22-48bc-b645-7c5aee976e7b}; !- HVAC Component

OS:PortList,
  {b5663c31-1346-48b3-b59d-46378f936964}, !- Handle
  {9630ac64-9a22-48bc-b645-7c5aee976e7b}, !- HVAC Component
  {c017a0d6-429f-4c4d-8c5e-ef41617cec17}; !- Port 1

OS:Sizing:Zone,
  {f318a11d-c326-422f-8171-99b62d592200}, !- Handle
  {9630ac64-9a22-48bc-b645-7c5aee976e7b}, !- Zone or ZoneList Name
  SupplyAirTemperature,                   !- Zone Cooling Design Supply Air Temperature Input Method
  14,                                     !- Zone Cooling Design Supply Air Temperature {C}
  11.11,                                  !- Zone Cooling Design Supply Air Temperature Difference {deltaC}
  SupplyAirTemperature,                   !- Zone Heating Design Supply Air Temperature Input Method
  40,                                     !- Zone Heating Design Supply Air Temperature {C}
  11.11,                                  !- Zone Heating Design Supply Air Temperature Difference {deltaC}
  0.0085,                                 !- Zone Cooling Design Supply Air Humidity Ratio {kg-H2O/kg-air}
  0.008,                                  !- Zone Heating Design Supply Air Humidity Ratio {kg-H2O/kg-air}
  ,                                       !- Zone Heating Sizing Factor
  ,                                       !- Zone Cooling Sizing Factor
  DesignDay,                              !- Cooling Design Air Flow Method
  ,                                       !- Cooling Design Air Flow Rate {m3/s}
  ,                                       !- Cooling Minimum Air Flow per Zone Floor Area {m3/s-m2}
  ,                                       !- Cooling Minimum Air Flow {m3/s}
  ,                                       !- Cooling Minimum Air Flow Fraction
  DesignDay,                              !- Heating Design Air Flow Method
  ,                                       !- Heating Design Air Flow Rate {m3/s}
  ,                                       !- Heating Maximum Air Flow per Zone Floor Area {m3/s-m2}
  ,                                       !- Heating Maximum Air Flow {m3/s}
  ,                                       !- Heating Maximum Air Flow Fraction
  No,                                     !- Account for Dedicated Outdoor Air System
  NeutralSupplyAir,                       !- Dedicated Outdoor Air System Control Strategy
  autosize,                               !- Dedicated Outdoor Air Low Setpoint Temperature for Design {C}
  autosize,                               !- Dedicated Outdoor Air High Setpoint Temperature for Design {C}
  Sensible Load Only No Latent Load,      !- Zone Load Sizing Method
  HumidityRatioDifference,                !- Zone Latent Cooling Design Supply Air Humidity Ratio Input Method
  ,                                       !- Zone Dehumidification Design Supply Air Humidity Ratio {kgWater/kgDryAir}
  0.005,                                  !- Zone Cooling Design Supply Air Humidity Ratio Difference {kgWater/kgDryAir}
  HumidityRatioDifference,                !- Zone Latent Heating Design Supply Air Humidity Ratio Input Method
  ,                                       !- Zone Humidification Design Supply Air Humidity Ratio {kgWater/kgDryAir}
  0.005,                                  !- Zone Humidification Design Supply Air Humidity Ratio Difference {kgWater/kgDryAir}
  ,                                       !- Zone Humidistat Dehumidification Set Point Schedule Name
  ,                                       !- Zone Humidistat Humidification Set Point Schedule Name
  ,                                       !- Design Zone Air Distribution Effectiveness in Cooling Mode
  ,                                       !- Design Zone Air Distribution Effectiveness in Heating Mode
  ,                                       !- Design Zone Secondary Recirculation Fraction {dimensionless}
  ,                                       !- Design Minimum Zone Ventilation Efficiency {dimensionless}
  Coincident;                             !- Sizing Option

OS:ZoneHVAC:EquipmentList,
  {54b8be1a-15a5-4d31-bb0c-d9f406841926}, !- Handle
  Zone HVAC Equipment List 1,             !- Name
  {9630ac64-9a22-48bc-b645-7c5aee976e7b}, !- Thermal Zone
  ,                                       !- Load Distribution Scheme
  {4a3546a5-0aec-4eb2-9c59-acf9906b2e25}, !- Zone Equipment 1
  1,                                      !- Zone Equipment Cooling Sequence 1
  1,                                      !- Zone Equipment Heating or No-Load Sequence 1
  {126c4785-ebd8-4ef4-a194-d090999ca5df}, !- Zone Equipment Sequential Cooling Fraction Schedule Name 1
  {5300a4ba-119f-45c5-ab4e-75df96cf2095}; !- Zone Equipment Sequential Heating Fraction Schedule Name 1

OS:AdditionalProperties,
  {be04739d-c666-4709-8710-d3bac034001b}, !- Handle
  {9630ac64-9a22-48bc-b645-7c5aee976e7b}, !- Object Name
  ObjectType,                             !- Feature Name 1
  String,                                 !- Feature Data Type 1
  conditioned space;                      !- Feature Value 1

OS:Space,
  {7526c0fe-1cd3-4e4b-90c2-f35ac56d027b}, !- Handle
  conditioned space 1,                    !- Name
  ,                                       !- Space Type Name
  ,                                       !- Default Construction Set Name
  ,                                       !- Default Schedule Set Name
  ,                                       !- Direction of Relative North {deg}
  ,                                       !- X Origin {m}
  ,                                       !- Y Origin {m}
  ,                                       !- Z Origin {m}
  ,                                       !- Building Story Name
  {9630ac64-9a22-48bc-b645-7c5aee976e7b}, !- Thermal Zone Name
  ,                                       !- Part of Total Floor Area
  ,                                       !- Design Specification Outdoor Air Object Name
  ,                                       !- Building Unit Name
  951.587629724161;                       !- Volume {m3}

OS:Schedule:Ruleset,
  {d738c587-8436-40f7-a906-7a3e11443481}, !- Handle
  heating setpoint,                       !- Name
  {f9d22be2-6e68-46c6-9b84-3aa1f5875fd7}, !- Schedule Type Limits Name
  {61198ecd-068f-4034-b929-54d827c03a46}; !- Default Day Schedule Name

OS:Schedule:Day,
  {61198ecd-068f-4034-b929-54d827c03a46}, !- Handle
  heating setpoint default day,           !- Name
  {f9d22be2-6e68-46c6-9b84-3aa1f5875fd7}, !- Schedule Type Limits Name
  ,                                       !- Interpolate to Timestep
  24,                                     !- Hour 1
  0,                                      !- Minute 1
  0;                                      !- Value Until Time 1

OS:Schedule:Rule,
  {7226fba4-0139-49f9-adfe-1168acf2d2e9}, !- Handle
  heating setpoint allday rule,           !- Name
  {d738c587-8436-40f7-a906-7a3e11443481}, !- Schedule Ruleset Name
  0,                                      !- Rule Order
  {0c273cda-9e7d-4b97-92da-fd977f892dec}, !- Day Schedule Name
  Yes,                                    !- Apply Sunday
  Yes,                                    !- Apply Monday
  Yes,                                    !- Apply Tuesday
  Yes,                                    !- Apply Wednesday
  Yes,                                    !- Apply Thursday
  Yes,                                    !- Apply Friday
  Yes,                                    !- Apply Saturday
  DateRange,                              !- Date Specification Type
  1,                                      !- Start Month
  1,                                      !- Start Day
  12,                                     !- End Month
  31;                                     !- End Day

OS:Schedule:Day,
  {0c273cda-9e7d-4b97-92da-fd977f892dec}, !- Handle
  heating setpoint day,                   !- Name
  {f9d22be2-6e68-46c6-9b84-3aa1f5875fd7}, !- Schedule Type Limits Name
  ,                                       !- Interpolate to Timestep
  24,                                     !- Hour 1
  0,                                      !- Minute 1
  20;                                     !- Value Until Time 1

OS:Schedule:Ruleset,
  {5df77972-992c-42da-96c8-cd520cc74360}, !- Handle
  cooling setpoint,                       !- Name
  {f9d22be2-6e68-46c6-9b84-3aa1f5875fd7}, !- Schedule Type Limits Name
  {365be887-b8ed-4ffc-a330-65858ef6c859}; !- Default Day Schedule Name

OS:Schedule:Day,
  {365be887-b8ed-4ffc-a330-65858ef6c859}, !- Handle
  cooling setpoint default day,           !- Name
  {f9d22be2-6e68-46c6-9b84-3aa1f5875fd7}, !- Schedule Type Limits Name
  ,                                       !- Interpolate to Timestep
  24,                                     !- Hour 1
  0,                                      !- Minute 1
  0;                                      !- Value Until Time 1

OS:Schedule:Rule,
  {c5367b2a-551b-44ea-9c58-f88b13a3cb41}, !- Handle
  cooling setpoint allday rule,           !- Name
  {5df77972-992c-42da-96c8-cd520cc74360}, !- Schedule Ruleset Name
  0,                                      !- Rule Order
  {308bb895-26bb-45c9-9944-45b6d5461bcf}, !- Day Schedule Name
  Yes,                                    !- Apply Sunday
  Yes,                                    !- Apply Monday
  Yes,                                    !- Apply Tuesday
  Yes,                                    !- Apply Wednesday
  Yes,                                    !- Apply Thursday
  Yes,                                    !- Apply Friday
  Yes,                                    !- Apply Saturday
  DateRange,                              !- Date Specification Type
  1,                                      !- Start Month
  1,                                      !- Start Day
  12,                                     !- End Month
  31;                                     !- End Day

OS:Schedule:Day,
  {308bb895-26bb-45c9-9944-45b6d5461bcf}, !- Handle
  cooling setpoint day,                   !- Name
  {f9d22be2-6e68-46c6-9b84-3aa1f5875fd7}, !- Schedule Type Limits Name
  ,                                       !- Interpolate to Timestep
  24,                                     !- Hour 1
  0,                                      !- Minute 1
  25.5555555555556;                       !- Value Until Time 1

OS:ThermostatSetpoint:DualSetpoint,
  {eed15610-75e7-4cfc-9860-94cb9b9fb5d9}, !- Handle
  conditioned space temperature setpoint, !- Name
  {d738c587-8436-40f7-a906-7a3e11443481}, !- Heating Setpoint Temperature Schedule Name
  {5df77972-992c-42da-96c8-cd520cc74360}, !- Cooling Setpoint Temperature Schedule Name
  0;                                      !- Temperature Difference Between Cutout And Setpoint {deltaC}

OS:ScheduleTypeLimits,
  {f9d22be2-6e68-46c6-9b84-3aa1f5875fd7}, !- Handle
  Temperature,                            !- Name
  ,                                       !- Lower Limit Value
  ,                                       !- Upper Limit Value
  Continuous,                             !- Numeric Type
  Temperature;                            !- Unit Type

OS:Surface,
  {7ee254a5-6acc-48bb-bea2-999ebda7004f}, !- Handle
  Roof1,                                  !- Name
  RoofCeiling,                            !- Surface Type
  {48cbc88c-616d-433c-a0dd-34c333a3ed27}, !- Construction Name
  {7526c0fe-1cd3-4e4b-90c2-f35ac56d027b}, !- Space Name
  Outdoors,                               !- Outside Boundary Condition
  ,                                       !- Outside Boundary Condition Object
  SunExposed,                             !- Sun Exposure
  WindExposed,                            !- Wind Exposure
  ,                                       !- View Factor to Ground
  ,                                       !- Number of Vertices
  -8.42346109387347, 8.42346109387347, 2.4384, !- X,Y,Z Vertex 1 {m}
  -8.42346109387347, -8.42346109387347, 2.4384, !- X,Y,Z Vertex 2 {m}
  8.42346109387347, -8.42346109387347, 2.4384, !- X,Y,Z Vertex 3 {m}
  8.42346109387347, 8.42346109387347, 2.4384; !- X,Y,Z Vertex 4 {m}

OS:AdditionalProperties,
  {ff2642c6-a4a4-441d-a622-96142c88fa90}, !- Handle
  {7ee254a5-6acc-48bb-bea2-999ebda7004f}, !- Object Name
  Length,                                 !- Feature Name 1
  Double,                                 !- Feature Data Type 1
  55.27205442174192,                      !- Feature Value 1
  Width,                                  !- Feature Name 2
  Double,                                 !- Feature Data Type 2
  55.272054421741913,                     !- Feature Value 2
  Azimuth,                                !- Feature Name 3
  Integer,                                !- Feature Data Type 3
  0,                                      !- Feature Value 3
  Tilt,                                   !- Feature Name 4
  Double,                                 !- Feature Data Type 4
  0,                                      !- Feature Value 4
  SurfaceType,                            !- Feature Name 5
  String,                                 !- Feature Data Type 5
  Roof;                                   !- Feature Value 5

OS:Material,
  {cb2fbfe9-f8e1-49d6-b5f9-ab91e522d69e}, !- Handle
  asphalt or fiberglass shingles,         !- Name
  Rough,                                  !- Roughness
  0.00635,                                !- Thickness {m}
  0.162714,                               !- Conductivity {W/m-K}
  1121.4,                                 !- Density {kg/m3}
  1465.45,                                !- Specific Heat {J/kg-K}
  0.9,                                    !- Thermal Absorptance
  0.85,                                   !- Solar Absorptance
  0.85;                                   !- Visible Absorptance

OS:Material,
  {2c890819-4260-4655-b0bc-baa86fb6a572}, !- Handle
  roof stud and cavity,                   !- Name
  Rough,                                  !- Roughness
  0.0889,                                 !- Thickness {m}
  0.491900632004487,                      !- Conductivity {W/m-K}
  50.32683,                               !- Density {kg/m3}
  1063.80987585548,                       !- Specific Heat {J/kg-K}
  0.9,                                    !- Thermal Absorptance
  0.7,                                    !- Solar Absorptance
  0.7;                                    !- Visible Absorptance

OS:Material,
  {636d55f9-7c63-47c0-89d1-838a183f21b1}, !- Handle
  gypsum board,                           !- Name
  Rough,                                  !- Roughness
  0.00254,                                !- Thickness {m}
  0.1602906,                              !- Conductivity {W/m-K}
  801,                                    !- Density {kg/m3}
  837.4,                                  !- Specific Heat {J/kg-K}
  0.9,                                    !- Thermal Absorptance
  0.6,                                    !- Solar Absorptance
  0.6;                                    !- Visible Absorptance

OS:Construction,
  {48cbc88c-616d-433c-a0dd-34c333a3ed27}, !- Handle
  Roof1 construction,                     !- Name
  ,                                       !- Surface Rendering Name
  {cb2fbfe9-f8e1-49d6-b5f9-ab91e522d69e}, !- Layer 1
  {2c890819-4260-4655-b0bc-baa86fb6a572}, !- Layer 2
  {636d55f9-7c63-47c0-89d1-838a183f21b1}; !- Layer 3

OS:Surface,
  {d9e44259-27c9-4ea2-a83d-af799af64991}, !- Handle
  Wall1,                                  !- Name
  Wall,                                   !- Surface Type
  {d7b67c59-c0cc-4441-8301-d5f833c79722}, !- Construction Name
  {7526c0fe-1cd3-4e4b-90c2-f35ac56d027b}, !- Space Name
  Outdoors,                               !- Outside Boundary Condition
  ,                                       !- Outside Boundary Condition Object
  SunExposed,                             !- Sun Exposure
  WindExposed,                            !- Wind Exposure
  ,                                       !- View Factor to Ground
  ,                                       !- Number of Vertices
  -50.3642317384615, 51.2932621384616, 0, !- X,Y,Z Vertex 1 {m}
  -50.3642317384615, 51.2932621384616, 2.4384, !- X,Y,Z Vertex 2 {m}
  -30.8303617384615, 51.2932621384616, 2.4384, !- X,Y,Z Vertex 3 {m}
  -30.8303617384615, 51.2932621384616, 0; !- X,Y,Z Vertex 4 {m}

OS:AdditionalProperties,
  {c1655bf9-59e4-4df6-b5db-6db3b1b8b1d6}, !- Handle
  {d9e44259-27c9-4ea2-a83d-af799af64991}, !- Object Name
  Length,                                 !- Feature Name 1
  Double,                                 !- Feature Data Type 1
  64.087499999999991,                     !- Feature Value 1
  Azimuth,                                !- Feature Name 2
  Integer,                                !- Feature Data Type 2
  0,                                      !- Feature Value 2
  Tilt,                                   !- Feature Name 3
  Double,                                 !- Feature Data Type 3
  90,                                     !- Feature Value 3
  SurfaceType,                            !- Feature Name 4
  String,                                 !- Feature Data Type 4
  Wall;                                   !- Feature Value 4

OS:Material,
  {5a9f37b6-b604-4cd1-b7b5-5d53af774a0f}, !- Handle
  wood siding,                            !- Name
  Rough,                                  !- Roughness
  0.0254,                                 !- Thickness {m}
  0.1024175,                              !- Conductivity {W/m-K}
  544.68,                                 !- Density {kg/m3}
  1172.36,                                !- Specific Heat {J/kg-K}
  0.9,                                    !- Thermal Absorptance
  0.7,                                    !- Solar Absorptance
  0.7;                                    !- Visible Absorptance

OS:Material,
  {69d14cce-3ac9-4c40-a92b-3d16b80737db}, !- Handle
  osb sheathing 0.5 in.,                  !- Name
  Rough,                                  !- Roughness
  0.0127,                                 !- Thickness {m}
  0.1154577,                              !- Conductivity {W/m-K}
  512.64,                                 !- Density {kg/m3}
  1214.23,                                !- Specific Heat {J/kg-K}
  0.9,                                    !- Thermal Absorptance
  0.7,                                    !- Solar Absorptance
  0.7;                                    !- Visible Absorptance

OS:Material,
  {af011a9f-c3d0-4667-8a84-c0a2f60bd33b}, !- Handle
  wall stud and cavity,                   !- Name
  Rough,                                  !- Roughness
  0.1397,                                 !- Thickness {m}
  0.0929021674204099,                     !- Conductivity {W/m-K}
  139.0536,                               !- Density {kg/m3}
  1170.23755760369,                       !- Specific Heat {J/kg-K}
  0.9,                                    !- Thermal Absorptance
  0.7,                                    !- Solar Absorptance
  0.7;                                    !- Visible Absorptance

OS:Material,
  {5f19a7c5-68a2-4659-bb51-abe155a391e1}, !- Handle
  gypsum board 1,                         !- Name
  Rough,                                  !- Roughness
  0.0127,                                 !- Thickness {m}
  0.1602906,                              !- Conductivity {W/m-K}
  801,                                    !- Density {kg/m3}
  837.4,                                  !- Specific Heat {J/kg-K}
  0.9,                                    !- Thermal Absorptance
  0.6,                                    !- Solar Absorptance
  0.6;                                    !- Visible Absorptance

OS:Construction,
  {d7b67c59-c0cc-4441-8301-d5f833c79722}, !- Handle
  Wall1 construction,                     !- Name
  ,                                       !- Surface Rendering Name
  {5a9f37b6-b604-4cd1-b7b5-5d53af774a0f}, !- Layer 1
  {69d14cce-3ac9-4c40-a92b-3d16b80737db}, !- Layer 2
  {af011a9f-c3d0-4667-8a84-c0a2f60bd33b}, !- Layer 3
  {5f19a7c5-68a2-4659-bb51-abe155a391e1}; !- Layer 4

OS:Surface,
  {dd3614cd-44b5-41a8-bb84-a5eae257da87}, !- Handle
  Wall2,                                  !- Name
  Wall,                                   !- Surface Type
  {3c54e808-e8d7-43a6-ac16-558627900a6f}, !- Construction Name
  {7526c0fe-1cd3-4e4b-90c2-f35ac56d027b}, !- Space Name
  Outdoors,                               !- Outside Boundary Condition
  ,                                       !- Outside Boundary Condition Object
  SunExposed,                             !- Sun Exposure
  WindExposed,                            !- Wind Exposure
  ,                                       !- View Factor to Ground
  ,                                       !- Number of Vertices
  51.2932621384616, -36.1953302, 0,       !- X,Y,Z Vertex 1 {m}
  51.2932621384616, -36.1953302, 2.4384,  !- X,Y,Z Vertex 2 {m}
  51.2932621384616, -45.9641702, 2.4384,  !- X,Y,Z Vertex 3 {m}
  51.2932621384616, -45.9641702, 0;       !- X,Y,Z Vertex 4 {m}

OS:AdditionalProperties,
  {8cdd73fd-afbb-43a4-bafc-23339fdae6ad}, !- Handle
  {dd3614cd-44b5-41a8-bb84-a5eae257da87}, !- Object Name
  Length,                                 !- Feature Name 1
  Double,                                 !- Feature Data Type 1
  32.049999999999997,                     !- Feature Value 1
  Azimuth,                                !- Feature Name 2