
OS:Version,
  {c18d1ff4-0070-4bed-95f6-db27685a3c03}, !- Handle
  3.9.0;                                  !- Version Identifier

OS:SimulationControl,
  {ac454862-468e-4564-bc41-3d25f05e341c}, !- Handle
  ,                                       !- Do Zone Sizing Calculation
  ,                                       !- Do System Sizing Calculation
  ,                                       !- Do Plant Sizing Calculation
  No;                                     !- Run Simulation for Sizing Periods

OS:Timestep,
  {4d7fab96-85d0-41a2-acff-bdb605ba6b49}, !- Handle
  1;                                      !- Number of Timesteps per Hour

OS:ShadowCalculation,
  {81ec8bc9-85c1-431f-8580-31db518a1af0}, !- Handle
  PolygonClipping,                        !- Shading Calculation Method
  ,                                       !- Shading Calculation Update Frequency Method
  20,                                     !- Shading Calculation Update Frequency
  200,                                    !- Maximum Figures in Shadow Overlap Calculations
  ,                                       !- Polygon Clipping Algorithm
  512,                                    !- Pixel Counting Resolution
  ,                                       !- Sky Diffuse Modeling Algorithm
  No,                                     !- Output External Shading Calculation Results
  No,                                     !- Disable Self-Shading Within Shading Zone Groups
  No;                                     !- Disable Self-Shading From Shading Zone Groups to Other Zones

OS:SurfaceConvectionAlgorithm:Outside,
  {974420f8-9888-4709-b3b5-a3d6ff980eb8}, !- Handle
  DOE-2;                                  !- Algorithm

OS:SurfaceConvectionAlgorithm:Inside,
  {a1cb0b0f-6f7e-4f2d-8fd3-d407a83ece35}, !- Handle
  TARP;                                   !- Algorithm

OS:ZoneCapacitanceMultiplier:ResearchSpecial,
  {d3628557-a98c-40b5-8f18-099054d43c5c}, !- Handle
  7,                                      !- Temperature Capacity Multiplier
  15,                                     !- Humidity Capacity Multiplier
  ;                                       !- Carbon Dioxide Capacity Multiplier

OS:ConvergenceLimits,
  {8ac980c5-35c9-448a-a224-1a25c7f6cb87}, !- Handle
  0;                                      !- Minimum System Timestep {minutes}

OS:RunPeriod,
  {398d0c99-7369-4f2d-a920-0b9cd99f8080}, !- Handle
  Run Period 1,                           !- Name
  1,                                      !- Begin Month
  1,                                      !- Begin Day of Month
  12,                                     !- End Month
  31,                                     !- End Day of Month
  ,                                       !- Use Weather File Holidays and Special Days
  ,                                       !- Use Weather File Daylight Saving Period
  ,                                       !- Apply Weekend Holiday Rule
  ,                                       !- Use Weather File Rain Indicators
  ,                                       !- Use Weather File Snow Indicators
  ;                                       !- Number of Times Runperiod to be Repeated

OS:PerformancePrecisionTradeoffs,
  {a558bbfc-6a70-46dd-a50d-995da2e960fa}, !- Handle
  ,                                       !- Use Coil Direct Solutions
  CarrollMRT;                             !- Zone Radiant Exchange Algorithm

OS:WeatherFile,
  {bd423559-725f-41eb-adc5-aa80024e5c67}, !- Handle
  Buffalo Niagara Intl Ap,                !- City
  NY,                                     !- State Province Region
  USA,                                    !- Country
  TMY3,                                   !- Data Source
  725280,                                 !- WMO Number
  42.93,                                  !- Latitude {deg}
  -78.73,                                 !- Longitude {deg}
  -5,                                     !- Time Zone {hr}
  215,                                    !- Elevation {m}
  /Users/nmoore/github/urbanopt-example-geojson-project/example_project/weather/USA_NY_Buffalo-Greater.Buffalo.Intl.AP.725280_TMY3.epw, !- Url
  6B50E0FF,                               !- Checksum
  ,                                       !- Start Date Actual Year
  Sunday;                                 !- Start Day of Week

OS:YearDescription,
  {db4eada5-f697-4443-a409-f11d613eafea}, !- Handle
  2007,                                   !- Calendar Year
  ,                                       !- Day of Week for Start Day
  ;                                       !- Is Leap Year

OS:Site,
  {9ab5896b-99f8-4e90-bb8b-b7adc42c2d3d}, !- Handle
  Buffalo Niagara Intl Ap_NY,             !- Name
  42.93,                                  !- Latitude {deg}
  -78.73,                                 !- Longitude {deg}
  -5,                                     !- Time Zone {hr}
  215,                                    !- Elevation {m}
  Suburbs,                                !- Terrain
  Yes;                                    !- Keep Site Location Information

OS:RunPeriodControl:DaylightSavingTime,
  {d31d731a-9b3f-46f2-9bce-af51fb7d48b4}, !- Handle
  Mar 12,                                 !- Start Date
  Nov 5;                                  !- End Date

OS:Site:GroundTemperature:Shallow,
  {3b0b1a10-880c-4293-9a37-a8ec909ea0a7}, !- Handle
  4.30207395723828,                       !- January Surface Ground Temperature {C}
  2.29327249652502,                       !- February Surface Ground Temperature {C}
  2.13240047156047,                       !- March Surface Ground Temperature {C}
  3.08567940719286,                       !- April Surface Ground Temperature {C}
  6.91256312497526,                       !- May Surface Ground Temperature {C}
  10.7216195949507,                       !- June Surface Ground Temperature {C}
  14.0238679822574,                       !- July Surface Ground Temperature {C}
  16.1157611184724,                       !- August Surface Ground Temperature {C}
  16.2934789303462,                       !- September Surface Ground Temperature {C}
  14.5920754632847,                       !- October Surface Ground Temperature {C}
  11.374036348653,                        !- November Surface Ground Temperature {C}
  7.68182621661674;                       !- December Surface Ground Temperature {C}

OS:ThermalZone,
  {6961b3ed-14f0-4f28-bc32-9662239412c0}, !- Handle
  conditioned space,                      !- Name
  1,                                      !- Multiplier
  ,                                       !- Ceiling Height {m}
  692.06373070848,                        !- Volume {m3}
  ,                                       !- Floor Area {m2}
  ,                                       !- Zone Inside Convection Algorithm
  ,                                       !- Zone Outside Convection Algorithm
  ,                                       !- Zone Conditioning Equipment List Name
  {63563369-d6c7-4101-9c82-0e7981269e75}, !- Zone Air Inlet Port List
  {123b9496-694f-4cb6-908e-1111db033255}, !- Zone Air Exhaust Port List
  {c2588ae9-e033-457f-afb2-229bb1984fd1}, !- Zone Air Node Name
  {18a25f8a-c81b-46c0-9b30-149621383b58}, !- Zone Return Air Port List
  ,                                       !- Primary Daylighting Control Name
  ,                                       !- Fraction of Zone Controlled by Primary Daylighting Control
  ,                                       !- Secondary Daylighting Control Name
  ,                                       !- Fraction of Zone Controlled by Secondary Daylighting Control
  ,                                       !- Illuminance Map Name
  ,                                       !- Group Rendering Name
  {266127de-7395-4fda-9e59-64140e7c4606}, !- Thermostat Name
  No;                                     !- Use Ideal Air Loads

OS:Node,
  {a2642d26-9d6b-4fab-8b51-dfe867f195d3}, !- Handle
  Node 1,                                 !- Name
  {c2588ae9-e033-457f-afb2-229bb1984fd1}, !- Inlet Port
  ;                                       !- Outlet Port

OS:Connection,
  {c2588ae9-e033-457f-afb2-229bb1984fd1}, !- Handle
  {6961b3ed-14f0-4f28-bc32-9662239412c0}, !- Source Object
  11,                                     !- Outlet Port
  {a2642d26-9d6b-4fab-8b51-dfe867f195d3}, !- Target Object
  2;                                      !- Inlet Port

OS:PortList,
  {63563369-d6c7-4101-9c82-0e7981269e75}, !- Handle
  {6961b3ed-14f0-4f28-bc32-9662239412c0}, !- HVAC Component
  {952dbd97-53db-4e96-b73b-62683d6baf85}; !- Port 1

OS:PortList,
  {123b9496-694f-4cb6-908e-1111db033255}, !- Handle
  {6961b3ed-14f0-4f28-bc32-9662239412c0}; !- HVAC Component

OS:PortList,
  {18a25f8a-c81b-46c0-9b30-149621383b58}, !- Handle
  {6961b3ed-14f0-4f28-bc32-9662239412c0}, !- HVAC Component
  {400fb920-0e62-46ea-9542-57b43d84051b}; !- Port 1

OS:Sizing:Zone,
  {49bc010f-c809-4b95-b118-83ee5b1ce073}, !- Handle
  {6961b3ed-14f0-4f28-bc32-9662239412c0}, !- Zone or ZoneList Name
  SupplyAirTemperature,                   !- Zone Cooling Design Supply Air Temperature Input Method
  14,                                     !- Zone Cooling Design Supply Air Temperature {C}
  11.11,                                  !- Zone Cooling Design Supply Air Temperature Difference {deltaC}
  SupplyAirTemperature,                   !- Zone Heating Design Supply Air Temperature Input Method
  40,                                     !- Zone Heating Design Supply Air Temperature {C}
  11.11,                                  !- Zone Heating Design Supply Air Temperature Difference {deltaC}
  0.0085,                                 !- Zone Cooling Design Supply Air Humidity Ratio {kg-H2O/kg-air}
  0.008,                                  !- Zone Heating Design Supply Air Humidity Ratio {kg-H2O/kg-air}
  ,                                       !- Zone Heating Sizing Factor
  ,                                       !- Zone Cooling Sizing Factor
  DesignDay,                              !- Cooling Design Air Flow Method
  ,                                       !- Cooling Design Air Flow Rate {m3/s}
  ,                                       !- Cooling Minimum Air Flow per Zone Floor Area {m3/s-m2}
  ,                                       !- Cooling Minimum Air Flow {m3/s}
  ,                                       !- Cooling Minimum Air Flow Fraction
  DesignDay,                              !- Heating Design Air Flow Method
  ,                                       !- Heating Design Air Flow Rate {m3/s}
  ,                                       !- Heating Maximum Air Flow per Zone Floor Area {m3/s-m2}
  ,                                       !- Heating Maximum Air Flow {m3/s}
  ,                                       !- Heating Maximum Air Flow Fraction
  No,                                     !- Account for Dedicated Outdoor Air System
  NeutralSupplyAir,                       !- Dedicated Outdoor Air System Control Strategy
  autosize,                               !- Dedicated Outdoor Air Low Setpoint Temperature for Design {C}
  autosize,                               !- Dedicated Outdoor Air High Setpoint Temperature for Design {C}
  Sensible Load Only No Latent Load,      !- Zone Load Sizing Method
  HumidityRatioDifference,                !- Zone Latent Cooling Design Supply Air Humidity Ratio Input Method
  ,                                       !- Zone Dehumidification Design Supply Air Humidity Ratio {kgWater/kgDryAir}
  0.005,                                  !- Zone Cooling Design Supply Air Humidity Ratio Difference {kgWater/kgDryAir}
  HumidityRatioDifference,                !- Zone Latent Heating Design Supply Air Humidity Ratio Input Method
  ,                                       !- Zone Humidification Design Supply Air Humidity Ratio {kgWater/kgDryAir}
  0.005,                                  !- Zone Humidification Design Supply Air Humidity Ratio Difference {kgWater/kgDryAir}
  ,                                       !- Zone Humidistat Dehumidification Set Point Schedule Name
  ,                                       !- Zone Humidistat Humidification Set Point Schedule Name
  ,                                       !- Design Zone Air Distribution Effectiveness in Cooling Mode
  ,                                       !- Design Zone Air Distribution Effectiveness in Heating Mode
  ,                                       !- Design Zone Secondary Recirculation Fraction {dimensionless}
  ,                                       !- Design Minimum Zone Ventilation Efficiency {dimensionless}
  Coincident;                             !- Sizing Option

OS:ZoneHVAC:EquipmentList,
  {904da28d-3d2d-4d7b-b4da-5fbe3733841c}, !- Handle
  Zone HVAC Equipment List 1,             !- Name
  {6961b3ed-14f0-4f28-bc32-9662239412c0}, !- Thermal Zone
  ,                                       !- Load Distribution Scheme
  {ac2115d9-7f81-40d3-b902-c7fd82c40576}, !- Zone Equipment 1
  1,                                      !- Zone Equipment Cooling Sequence 1
  1,                                      !- Zone Equipment Heating or No-Load Sequence 1
  {2d8d9ac7-784f-44c5-9fad-4d5ca748eb1e}, !- Zone Equipment Sequential Cooling Fraction Schedule Name 1
  {37f19fb0-9611-4d77-99f0-16e98258234b}, !- Zone Equipment Sequential Heating Fraction Schedule Name 1
  {2003564b-5d21-417b-ab38-706343c2aeb8}, !- Zone Equipment 2
  2,                                      !- Zone Equipment Cooling Sequence 2
  2,                                      !- Zone Equipment Heating or No-Load Sequence 2
  {638b7761-67d3-4231-8f82-be98d8f72cc1}, !- Zone Equipment Sequential Cooling Fraction Schedule Name 2
  {bca4566b-bbdb-4e31-9be8-2d99a5edc532}; !- Zone Equipment Sequential Heating Fraction Schedule Name 2

OS:AdditionalProperties,
  {0073671f-6864-40cd-8870-bc4a40640b73}, !- Handle
  {6961b3ed-14f0-4f28-bc32-9662239412c0}, !- Object Name
  ObjectType,                             !- Feature Name 1
  String,                                 !- Feature Data Type 1
  conditioned space;                      !- Feature Value 1

OS:Space,
  {aa676ebf-1c51-42f8-8ac0-26d6168e0243}, !- Handle
  conditioned space 1,                    !- Name
  ,                                       !- Space Type Name
  ,                                       !- Default Construction Set Name
  ,                                       !- Default Schedule Set Name
  ,                                       !- Direction of Relative North {deg}
  ,                                       !- X Origin {m}
  ,                                       !- Y Origin {m}
  ,                                       !- Z Origin {m}
  ,                                       !- Building Story Name
  {6961b3ed-14f0-4f28-bc32-9662239412c0}, !- Thermal Zone Name
  ,                                       !- Part of Total Floor Area
  ,                                       !- Design Specification Outdoor Air Object Name
  ,                                       !- Building Unit Name
  692.06373070848;                        !- Volume {m3}

OS:Schedule:Ruleset,
  {48a91c50-98d4-47f4-bb7e-ba0af9edde3e}, !- Handle
  heating setpoint,                       !- Name
  {9aee0af9-51ba-483a-8d73-dd3e40caad72}, !- Schedule Type Limits Name
  {1d719d22-04de-4bd5-aa9c-b6de2f9dc5bd}; !- Default Day Schedule Name

OS:Schedule:Day,
  {1d719d22-04de-4bd5-aa9c-b6de2f9dc5bd}, !- Handle
  heating setpoint default day,           !- Name
  {9aee0af9-51ba-483a-8d73-dd3e40caad72}, !- Schedule Type Limits Name
  ,                                       !- Interpolate to Timestep
  24,                                     !- Hour 1
  0,                                      !- Minute 1
  0;                                      !- Value Until Time 1

OS:Schedule:Rule,
  {bfd90fec-becd-42b6-97ff-f87c417eadd3}, !- Handle
  heating setpoint allday rule,           !- Name
  {48a91c50-98d4-47f4-bb7e-ba0af9edde3e}, !- Schedule Ruleset Name
  0,                                      !- Rule Order
  {1341de72-e42a-4535-9c5a-2b13ebe8f836}, !- Day Schedule Name
  Yes,                                    !- Apply Sunday
  Yes,                                    !- Apply Monday
  Yes,                                    !- Apply Tuesday
  Yes,                                    !- Apply Wednesday
  Yes,                                    !- Apply Thursday
  Yes,                                    !- Apply Friday
  Yes,                                    !- Apply Saturday
  DateRange,                              !- Date Specification Type
  1,                                      !- Start Month
  1,                                      !- Start Day
  12,                                     !- End Month
  31;                                     !- End Day

OS:Schedule:Day,
  {1341de72-e42a-4535-9c5a-2b13ebe8f836}, !- Handle
  heating setpoint day,                   !- Name
  {9aee0af9-51ba-483a-8d73-dd3e40caad72}, !- Schedule Type Limits Name
  ,                                       !- Interpolate to Timestep
  24,                                     !- Hour 1
  0,                                      !- Minute 1
  20;                                     !- Value Until Time 1

OS:Schedule:Ruleset,
  {d1a2c898-4e63-4724-a950-b6551f87e6b8}, !- Handle
  cooling setpoint,                       !- Name
  {9aee0af9-51ba-483a-8d73-dd3e40caad72}, !- Schedule Type Limits Name
  {26058a77-4e9b-4d2c-9086-ebd0183f717e}; !- Default Day Schedule Name

OS:Schedule:Day,
  {26058a77-4e9b-4d2c-9086-ebd0183f717e}, !- Handle
  cooling setpoint default day,           !- Name
  {9aee0af9-51ba-483a-8d73-dd3e40caad72}, !- Schedule Type Limits Name
  ,                                       !- Interpolate to Timestep
  24,                                     !- Hour 1
  0,                                      !- Minute 1
  0;                                      !- Value Until Time 1

OS:Schedule:Rule,
  {aa73ca0c-4a02-4fac-822f-bcf28f32daf6}, !- Handle
  cooling setpoint allday rule,           !- Name
  {d1a2c898-4e63-4724-a950-b6551f87e6b8}, !- Schedule Ruleset Name
  0,                                      !- Rule Order
  {f7b214c1-dde5-4c2f-8013-ef5562c6f529}, !- Day Schedule Name
  Yes,                                    !- Apply Sunday
  Yes,                                    !- Apply Monday
  Yes,                                    !- Apply Tuesday
  Yes,                                    !- Apply Wednesday
  Yes,                                    !- Apply Thursday
  Yes,                                    !- Apply Friday
  Yes,                                    !- Apply Saturday
  DateRange,                              !- Date Specification Type
  1,                                      !- Start Month
  1,                                      !- Start Day
  12,                                     !- End Month
  31;                                     !- End Day

OS:Schedule:Day,
  {f7b214c1-dde5-4c2f-8013-ef5562c6f529}, !- Handle
  cooling setpoint day,                   !- Name
  {9aee0af9-51ba-483a-8d73-dd3e40caad72}, !- Schedule Type Limits Name
  ,                                       !- Interpolate to Timestep
  24,                                     !- Hour 1
  0,                                      !- Minute 1
  25.5555555555556;                       !- Value Until Time 1

OS:ThermostatSetpoint:DualSetpoint,
  {266127de-7395-4fda-9e59-64140e7c4606}, !- Handle
  conditioned space temperature setpoint, !- Name
  {48a91c50-98d4-47f4-bb7e-ba0af9edde3e}, !- Heating Setpoint Temperature Schedule Name
  {d1a2c898-4e63-4724-a950-b6551f87e6b8}, !- Cooling Setpoint Temperature Schedule Name
  0;                                      !- Temperature Difference Between Cutout And Setpoint {deltaC}

OS:ScheduleTypeLimits,
  {9aee0af9-51ba-483a-8d73-dd3e40caad72}, !- Handle
  Temperature,                            !- Name
  ,                                       !- Lower Limit Value
  ,                                       !- Upper Limit Value
  Continuous,                             !- Numeric Type
  Temperature;                            !- Unit Type

OS:Surface,
  {c3591e78-0ace-477f-8c0b-626cdfcc5f36}, !- Handle
  Roof1,                                  !- Name
  RoofCeiling,                            !- Surface Type
  {c133f6a9-ae4c-453f-94b8-03adb80aafb6}, !- Construction Name
  {b9f9828f-c033-49ef-8316-4548c8028090}, !- Space Name
  Outdoors,                               !- Outside Boundary Condition
  ,                                       !- Outside Boundary Condition Object
  SunExposed,                             !- Sun Exposure
  WindExposed,                            !- Wind Exposure
  ,                                       !- View Factor to Ground
  ,                                       !- Number of Vertices
  -26.9347048849634, 58.0557891618865, 2.4384, !- X,Y,Z Vertex 1 {m}
  -26.9347048849634, 46.7895631136661, 8.0715130241102, !- X,Y,Z Vertex 2 {m}
  -14.3386812381136, 46.7895631136661, 8.0715130241102, !- X,Y,Z Vertex 3 {m}
  -14.3386812381136, 58.0557891618865, 2.4384; !- X,Y,Z Vertex 4 {m}

OS:AdditionalProperties,
  {fad3003a-5836-4554-856b-72b89ba761f4}, !- Handle
  {c3591e78-0ace-477f-8c0b-626cdfcc5f36}, !- Object Name
  Length,                                 !- Feature Name 1
  Double,                                 !- Feature Data Type 1
  41.325536899113608,                     !- Feature Value 1
  Width,                                  !- Feature Name 2
  Double,                                 !- Feature Data Type 2
  41.325536899113601,                     !- Feature Value 2
  Azimuth,                                !- Feature Name 3
  Integer,                                !- Feature Data Type 3
  0,                                      !- Feature Value 3
  Tilt,                                   !- Feature Name 4
  Double,                                 !- Feature Data Type 4
  0.5,                                    !- Feature Value 4
  SurfaceType,                            !- Feature Name 5
  String,                                 !- Feature Data Type 5
  Roof;                                   !- Feature Value 5

OS:ThermalZone,
  {07d28ca6-9a6f-4d6c-819f-ab0f638407c8}, !- Handle
  attic - vented,                         !- Name
  1,                                      !- Multiplier
  ,                                       !- Ceiling Height {m}
  356.389957095237,                       !- Volume {m3}
  ,                                       !- Floor Area {m2}
  ,                                       !- Zone Inside Convection Algorithm
  ,                                       !- Zone Outside Convection Algorithm
  ,                                       !- Zone Conditioning Equipment List Name
  {cedeef03-d4ca-4174-913e-3de8973b1109}, !- Zone Air Inlet Port List
  {690e33c7-ef4c-4600-8f23-a8c47316a4b4}, !- Zone Air Exhaust Port List
  {96276df2-c149-4664-95f4-54a650e5829f}, !- Zone Air Node Name
  {309fd69d-fa05-436d-9e66-95b4bb0acd69}, !- Zone Return Air Port List
  ,                                       !- Primary Daylighting Control Name
  ,                                       !- Fraction of Zone Controlled by Primary Daylighting Control
  ,                                       !- Secondary Daylighting Control Name
  ,                                       !- Fraction of Zone Controlled by Secondary Daylighting Control
  ,                                       !- Illuminance Map Name
  ,                                       !- Group Rendering Name
  ,                                       !- Thermostat Name
  No;                                     !- Use Ideal Air Loads

OS:Node,
  {554d6eb7-41d6-487f-846b-b0d91eb12172}, !- Handle
  Node 2,                                 !- Name
  {96276df2-c149-4664-95f4-54a650e5829f}, !- Inlet Port
  ;                                       !- Outlet Port

OS:Connection,
  {96276df2-c149-4664-95f4-54a650e5829f}, !- Handle
  {07d28ca6-9a6f-4d6c-819f-ab0f638407c8}, !- Source Object
  11,                                     !- Outlet Port
  {554d6eb7-41d6-487f-846b-b0d91eb12172}, !- Target Object
  2;                                      !- Inlet Port

OS:PortList,
  {cedeef03-d4ca-4174-913e-3de8973b1109}, !- Handle
  {07d28ca6-9a6f-4d6c-819f-ab0f638407c8}; !- HVAC Component

OS:PortList,
  {690e33c7-ef4c-4600-8f23-a8c47316a4b4}, !- Handle
  {07d28ca6-9a6f-4d6c-819f-ab0f638407c8}; !- HVAC Component

OS:PortList,
  {309fd69d-fa05-436d-9e66-95b4bb0acd69}, !- Handle
  {07d28ca6-9a6f-4d6c-819f-ab0f638407c8}; !- HVAC Component

OS:Sizing:Zone,
  {5a6c7fe8-ff30-43ea-b81c-fc872d3cae2f}, !- Handle
  {07d28ca6-9a6f-4d6c-819f-ab0f638407c8}, !- Zone or ZoneList Name
  SupplyAirTemperature,                   !- Zone Cooling Design Supply Air Temperature Input Method
  14,                                     !- Zone Cooling Design Supply Air Temperature {C}
  11.11,                                  !- Zone Cooling Design Supply Air Temperature Difference {deltaC}
  SupplyAirTemperature,                   !- Zone Heating Design Supply Air Temperature Input Method
  40,                                     !- Zone Heating Design Supply Air Temperature {C}
  11.11,                                  !- Zone Heating Design Supply Air Temperature Difference {deltaC}
  0.0085,                                 !- Zone Cooling Design Supply Air Humidity Ratio {kg-H2O/kg-air}
  0.008,                                  !- Zone Heating Design Supply Air Humidity Ratio {kg-H2O/kg-air}
  ,                                       !- Zone Heating Sizing Factor
  ,                                       !- Zone Cooling Sizing Factor
  DesignDay,                              !- Cooling Design Air Flow Method
  ,                                       !- Cooling Design Air Flow Rate {m3/s}
  ,                                       !- Cooling Minimum Air Flow per Zone Floor Area {m3/s-m2}
  ,                                       !- Cooling Minimum Air Flow {m3/s}
  ,                                       !- Cooling Minimum Air Flow Fraction
  DesignDay,                              !- Heating Design Air Flow Method
  ,                                       !- Heating Design Air Flow Rate {m3/s}
  ,                                       !- Heating Maximum Air Flow per Zone Floor Area {m3/s-m2}
  ,                                       !- Heating Maximum Air Flow {m3/s}
  ,                                       !- Heating Maximum Air Flow Fraction
  No,                                     !- Account for Dedicated Outdoor Air System
  NeutralSupplyAir,                       !- Dedicated Outdoor Air System Control Strategy
  autosize,                               !- Dedicated Outdoor Air Low Setpoint Temperature for Design {C}
  autosize,                               !- Dedicated Outdoor Air High Setpoint Temperature for Design {C}
  Sensible Load Only No Latent Load,      !- Zone Load Sizing Method
  HumidityRatioDifference,                !- Zone Latent Cooling Design Supply Air Humidity Ratio Input Method
  ,                                       !- Zone Dehumidification Design Supply Air Humidity Ratio {kgWater/kgDryAir}
  0.005,                                  !- Zone Cooling Design Supply Air Humidity Ratio Difference {kgWater/kgDryAir}
  HumidityRatioDifference,                !- Zone Latent Heating Design Supply Air Humidity Ratio Input Method
  ,                                       !- Zone Humidification Design Supply Air Humidity Ratio {kgWater/kgDryAir}
  0.005,                                  !- Zone Humidification Design Supply Air Humidity Ratio Difference {kgWater/kgDryAir}
  ,                                       !- Zone Humidistat Dehumidification Set Point Schedule Name
  ,                                       !- Zone Humidistat Humidification Set Point Schedule Name
  ,                                       !- Design Zone Air Distribution Effectiveness in Cooling Mode
  ,                                       !- Design Zone Air Distribution Effectiveness in Heating Mode
  ,                                       !- Design Zone Secondary Recirculation Fraction {dimensionless}
  ,                                       !- Design Minimum Zone Ventilation Efficiency {dimensionless}
  Coincident;                             !- Sizing Option

OS:ZoneHVAC:EquipmentList,
  {0e4f07c7-b3e0-4a49-9fa9-764e11228642}, !- Handle
  Zone HVAC Equipment List 2,             !- Name
  {07d28ca6-9a6f-4d6c-819f-ab0f638407c8}; !- Thermal Zone

OS:AdditionalProperties,
  {50503354-b393-48c5-a25a-5eedef32b183}, !- Handle
  {07d28ca6-9a6f-4d6c-819f-ab0f638407c8}, !- Object Name
  ObjectType,                             !- Feature Name 1
  String,                                 !- Feature Data Type 1
  attic - vented;                         !- Feature Value 1

OS:Space,
  {b9f9828f-c033-49ef-8316-4548c8028090}, !- Handle
  attic - vented 1,                       !- Name
  ,                                       !- Space Type Name
  ,                                       !- Default Construction Set Name
  ,                                       !- Default Schedule Set Name
  ,                                       !- Direction of Relative North {deg}
  ,                                       !- X Origin {m}
  ,                                       !- Y Origin {m}
  ,                                       !- Z Origin {m}
  ,                                       !- Building Story Name
  {07d28ca6-9a6f-4d6c-819f-ab0f638407c8}, !- Thermal Zone Name
  ,                                       !- Part of Total Floor Area
  ,                                       !- Design Specification Outdoor Air Object Name
  ,                                       !- Building Unit Name
  356.389957095237;                       !- Volume {m3}

OS:Material,
  {a6744e00-6fe2-4ace-95c5-5de1e2787194}, !- Handle
  asphalt or fiberglass shingles,         !- Name