
OS:Version,
  {f927fb1b-9e1c-494a-b6f8-6a26e32c6a7c}, !- Handle
  3.10.0;                                 !- Version Identifier

OS:SimulationControl,
  {f198db34-a9d3-48f2-944c-d7636a6dfca7}, !- Handle
  ,                                       !- Do Zone Sizing Calculation
  ,                                       !- Do System Sizing Calculation
  ,                                       !- Do Plant Sizing Calculation
  No;                                     !- Run Simulation for Sizing Periods

OS:Timestep,
  {0f7af26b-93f2-42fa-a664-328f3ba04c8e}, !- Handle
  1;                                      !- Number of Timesteps per Hour

OS:ShadowCalculation,
  {c280568a-4210-4327-a82b-d1137e6cf5c2}, !- Handle
  PolygonClipping,                        !- Shading Calculation Method
  ,                                       !- Shading Calculation Update Frequency Method
  20,                                     !- Shading Calculation Update Frequency
  200,                                    !- Maximum Figures in Shadow Overlap Calculations
  ,                                       !- Polygon Clipping Algorithm
  512,                                    !- Pixel Counting Resolution
  ,                                       !- Sky Diffuse Modeling Algorithm
  No,                                     !- Output External Shading Calculation Results
  No,                                     !- Disable Self-Shading Within Shading Zone Groups
  No;                                     !- Disable Self-Shading From Shading Zone Groups to Other Zones

OS:SurfaceConvectionAlgorithm:Outside,
  {d04787a1-4689-4ce6-8d4e-c8cf9865013e}, !- Handle
  DOE-2;                                  !- Algorithm

OS:SurfaceConvectionAlgorithm:Inside,
  {58334087-e4ef-41a7-aae7-326e7f2609c1}, !- Handle
  TARP;                                   !- Algorithm

OS:ZoneCapacitanceMultiplier:ResearchSpecial,
  {16af4644-8d02-4b17-84d9-224cd6516a9a}, !- Handle
  7,                                      !- Temperature Capacity Multiplier
  15,                                     !- Humidity Capacity Multiplier
  ;                                       !- Carbon Dioxide Capacity Multiplier

OS:ConvergenceLimits,
  {cd8ca9c7-c203-458e-9831-9ca3d9404e09}, !- Handle
  0;                                      !- Minimum System Timestep {minutes}

OS:RunPeriod,
  {931b40b9-ab04-43fd-b06c-d103374b3974}, !- Handle
  Run Period 1,                           !- Name
  1,                                      !- Begin Month
  1,                                      !- Begin Day of Month
  12,                                     !- End Month
  31,                                     !- End Day of Month
  ,                                       !- Use Weather File Holidays and Special Days
  ,                                       !- Use Weather File Daylight Saving Period
  ,                                       !- Apply Weekend Holiday Rule
  ,                                       !- Use Weather File Rain Indicators
  ,                                       !- Use Weather File Snow Indicators
  ;                                       !- Number of Times Runperiod to be Repeated

OS:PerformancePrecisionTradeoffs,
  {96805b19-f750-40e0-bb4c-0b5d349fab6d}, !- Handle
  ,                                       !- Use Coil Direct Solutions
  CarrollMRT;                             !- Zone Radiant Exchange Algorithm

OS:WeatherFile,
  {b8127cb4-eada-4ad7-afa3-0a8c4ff02c93}, !- Handle
  Buffalo Niagara Intl Ap,                !- City
  NY,                                     !- State Province Region
  USA,                                    !- Country
  TMY3,                                   !- Data Source
  725280,                                 !- WMO Number
  42.93,                                  !- Latitude {deg}
  -78.73,                                 !- Longitude {deg}
  -5,                                     !- Time Zone {hr}
  215,                                    !- Elevation {m}
  /Users/nmoore/github/urbanopt-example-geojson-project/example_project/weather/USA_NY_Buffalo-Greater.Buffalo.Intl.AP.725280_TMY3.epw, !- Url
  6B50E0FF,                               !- Checksum
  ,                                       !- Start Date Actual Year
  Sunday;                                 !- Start Day of Week

OS:YearDescription,
  {333759b1-771a-48ad-b253-fce7ed58d07a}, !- Handle
  2007,                                   !- Calendar Year
  ,                                       !- Day of Week for Start Day
  ;                                       !- Is Leap Year

OS:Site,
  {d6a8b7c8-d3c4-4030-b163-13b6838305b8}, !- Handle
  Buffalo Niagara Intl Ap_NY,             !- Name
  42.93,                                  !- Latitude {deg}
  -78.73,                                 !- Longitude {deg}
  -5,                                     !- Time Zone {hr}
  215,                                    !- Elevation {m}
  Suburbs,                                !- Terrain
  Yes;                                    !- Keep Site Location Information

OS:RunPeriodControl:DaylightSavingTime,
  {549de2a6-4656-4bf7-b638-f66d55b70897}, !- Handle
  Mar 12,                                 !- Start Date
  Nov 5;                                  !- End Date

OS:Site:GroundTemperature:Shallow,
  {d1bd9012-4d53-44a1-81e8-172632ef653f}, !- Handle
  4.30207395723828,                       !- January Surface Ground Temperature {C}
  2.29327249652502,                       !- February Surface Ground Temperature {C}
  2.13240047156047,                       !- March Surface Ground Temperature {C}
  3.08567940719286,                       !- April Surface Ground Temperature {C}
  6.91256312497526,                       !- May Surface Ground Temperature {C}
  10.7216195949507,                       !- June Surface Ground Temperature {C}
  14.0238679822574,                       !- July Surface Ground Temperature {C}
  16.1157611184724,                       !- August Surface Ground Temperature {C}
  16.2934789303462,                       !- September Surface Ground Temperature {C}
  14.5920754632847,                       !- October Surface Ground Temperature {C}
  11.374036348653,                        !- November Surface Ground Temperature {C}
  7.68182621661674;                       !- December Surface Ground Temperature {C}

OS:ThermalZone,
  {18e83bde-c4cc-4da0-b09c-9b8d54e54c97}, !- Handle
  conditioned space,                      !- Name
  1,                                      !- Multiplier
  ,                                       !- Ceiling Height {m}
  692.06373070848,                        !- Volume {m3}
  ,                                       !- Floor Area {m2}
  ,                                       !- Zone Inside Convection Algorithm
  ,                                       !- Zone Outside Convection Algorithm
  ,                                       !- Zone Conditioning Equipment List Name
  {fbfb9537-efde-40e3-89ab-fa4aadacb730}, !- Zone Air Inlet Port List
  {e0c65c6d-83bb-4d72-ac23-52c3e0198319}, !- Zone Air Exhaust Port List
  {30a2a396-0a15-4193-9ab9-d0a3da41a004}, !- Zone Air Node Name
  {22615223-a4ad-421a-9a5b-43bd5309c6eb}, !- Zone Return Air Port List
  ,                                       !- Primary Daylighting Control Name
  ,                                       !- Fraction of Zone Controlled by Primary Daylighting Control
  ,                                       !- Secondary Daylighting Control Name
  ,                                       !- Fraction of Zone Controlled by Secondary Daylighting Control
  ,                                       !- Illuminance Map Name
  ,                                       !- Group Rendering Name
  {31616738-cc77-4436-97df-de911f3c1c75}, !- Thermostat Name
  No;                                     !- Use Ideal Air Loads

OS:Node,
  {77eeacb5-c891-43ec-bfbf-88b0d7175e62}, !- Handle
  Node 1,                                 !- Name
  {30a2a396-0a15-4193-9ab9-d0a3da41a004}, !- Inlet Port
  ;                                       !- Outlet Port

OS:Connection,
  {30a2a396-0a15-4193-9ab9-d0a3da41a004}, !- Handle
  {18e83bde-c4cc-4da0-b09c-9b8d54e54c97}, !- Source Object
  11,                                     !- Outlet Port
  {77eeacb5-c891-43ec-bfbf-88b0d7175e62}, !- Target Object
  2;                                      !- Inlet Port

OS:PortList,
  {fbfb9537-efde-40e3-89ab-fa4aadacb730}, !- Handle
  {18e83bde-c4cc-4da0-b09c-9b8d54e54c97}, !- HVAC Component
  {60362b63-b702-4711-94b0-cd2838cb7407}; !- Port 1

OS:PortList,
  {e0c65c6d-83bb-4d72-ac23-52c3e0198319}, !- Handle
  {18e83bde-c4cc-4da0-b09c-9b8d54e54c97}; !- HVAC Component

OS:PortList,
  {22615223-a4ad-421a-9a5b-43bd5309c6eb}, !- Handle
  {18e83bde-c4cc-4da0-b09c-9b8d54e54c97}, !- HVAC Component
  {b59c8b75-0080-43c0-b4b0-58dc8a0741ba}; !- Port 1

OS:Sizing:Zone,
  {006a8b76-ae2a-4046-ad97-48b19d991b8a}, !- Handle
  {18e83bde-c4cc-4da0-b09c-9b8d54e54c97}, !- Zone or ZoneList Name
  SupplyAirTemperature,                   !- Zone Cooling Design Supply Air Temperature Input Method
  14,                                     !- Zone Cooling Design Supply Air Temperature {C}
  11.11,                                  !- Zone Cooling Design Supply Air Temperature Difference {deltaC}
  SupplyAirTemperature,                   !- Zone Heating Design Supply Air Temperature Input Method
  40,                                     !- Zone Heating Design Supply Air Temperature {C}
  11.11,                                  !- Zone Heating Design Supply Air Temperature Difference {deltaC}
  0.0085,                                 !- Zone Cooling Design Supply Air Humidity Ratio {kg-H2O/kg-air}
  0.008,                                  !- Zone Heating Design Supply Air Humidity Ratio {kg-H2O/kg-air}
  ,                                       !- Zone Heating Sizing Factor
  ,                                       !- Zone Cooling Sizing Factor
  DesignDay,                              !- Cooling Design Air Flow Method
  ,                                       !- Cooling Design Air Flow Rate {m3/s}
  ,                                       !- Cooling Minimum Air Flow per Zone Floor Area {m3/s-m2}
  ,                                       !- Cooling Minimum Air Flow {m3/s}
  ,                                       !- Cooling Minimum Air Flow Fraction
  DesignDay,                              !- Heating Design Air Flow Method
  ,                                       !- Heating Design Air Flow Rate {m3/s}
  ,                                       !- Heating Maximum Air Flow per Zone Floor Area {m3/s-m2}
  ,                                       !- Heating Maximum Air Flow {m3/s}
  ,                                       !- Heating Maximum Air Flow Fraction
  No,                                     !- Account for Dedicated Outdoor Air System
  NeutralSupplyAir,                       !- Dedicated Outdoor Air System Control Strategy
  autosize,                               !- Dedicated Outdoor Air Low Setpoint Temperature for Design {C}
  autosize,                               !- Dedicated Outdoor Air High Setpoint Temperature for Design {C}
  Sensible Load Only No Latent Load,      !- Zone Load Sizing Method
  HumidityRatioDifference,                !- Zone Latent Cooling Design Supply Air Humidity Ratio Input Method
  ,                                       !- Zone Dehumidification Design Supply Air Humidity Ratio {kgWater/kgDryAir}
  0.005,                                  !- Zone Cooling Design Supply Air Humidity Ratio Difference {kgWater/kgDryAir}
  HumidityRatioDifference,                !- Zone Latent Heating Design Supply Air Humidity Ratio Input Method
  ,                                       !- Zone Humidification Design Supply Air Humidity Ratio {kgWater/kgDryAir}
  0.005,                                  !- Zone Humidification Design Supply Air Humidity Ratio Difference {kgWater/kgDryAir}
  ,                                       !- Zone Humidistat Dehumidification Set Point Schedule Name
  ,                                       !- Zone Humidistat Humidification Set Point Schedule Name
  ,                                       !- Design Zone Air Distribution Effectiveness in Cooling Mode
  ,                                       !- Design Zone Air Distribution Effectiveness in Heating Mode
  ,                                       !- Design Zone Secondary Recirculation Fraction {dimensionless}
  ,                                       !- Design Minimum Zone Ventilation Efficiency {dimensionless}
  Coincident;                             !- Sizing Option

OS:ZoneHVAC:EquipmentList,
  {257d9f39-2620-41e3-9e1a-091e21b19b49}, !- Handle
  Zone HVAC Equipment List 1,             !- Name
  {18e83bde-c4cc-4da0-b09c-9b8d54e54c97}, !- Thermal Zone
  ,                                       !- Load Distribution Scheme
  {24c003b1-eb57-4d73-a58c-b8fd796ca4a8}, !- Zone Equipment 1
  1,                                      !- Zone Equipment Cooling Sequence 1
  1,                                      !- Zone Equipment Heating or No-Load Sequence 1
  {d130cf57-21fd-4bde-8210-d22e980c4f19}, !- Zone Equipment Sequential Cooling Fraction Schedule Name 1
  {fe8be7d3-3de6-4a29-a9a3-79a1c608444f}, !- Zone Equipment Sequential Heating Fraction Schedule Name 1
  {c6edd025-8f29-4cb1-997c-d71ccde9b8b0}, !- Zone Equipment 2
  2,                                      !- Zone Equipment Cooling Sequence 2
  2,                                      !- Zone Equipment Heating or No-Load Sequence 2
  {d2df9acf-ab28-40bf-8e2d-4a20b67f30f1}, !- Zone Equipment Sequential Cooling Fraction Schedule Name 2
  {85f76f2f-480f-4916-a768-b636a0210564}; !- Zone Equipment Sequential Heating Fraction Schedule Name 2

OS:AdditionalProperties,
  {438527f8-7326-482d-a0fc-628df4d4799d}, !- Handle
  {18e83bde-c4cc-4da0-b09c-9b8d54e54c97}, !- Object Name
  ObjectType,                             !- Feature Name 1
  String,                                 !- Feature Data Type 1
  conditioned space;                      !- Feature Value 1

OS:Space,
  {8a202d2e-04cf-4de5-be71-778e67e8456e}, !- Handle
  conditioned space 1,                    !- Name
  ,                                       !- Space Type Name
  ,                                       !- Default Construction Set Name
  ,                                       !- Default Schedule Set Name
  ,                                       !- Direction of Relative North {deg}
  ,                                       !- X Origin {m}
  ,                                       !- Y Origin {m}
  ,                                       !- Z Origin {m}
  ,                                       !- Building Story Name
  {18e83bde-c4cc-4da0-b09c-9b8d54e54c97}, !- Thermal Zone Name
  ,                                       !- Part of Total Floor Area
  ,                                       !- Design Specification Outdoor Air Object Name
  ,                                       !- Building Unit Name
  692.06373070848;                        !- Volume {m3}

OS:Schedule:Ruleset,
  {c5c84358-3fce-4c80-9dc8-5b215c37e5f8}, !- Handle
  heating setpoint,                       !- Name
  {0de2ae23-23a1-4e25-a3f0-0a1449d7eb36}, !- Schedule Type Limits Name
  {a87d3020-c53c-4678-bef8-4ebe11250a73}; !- Default Day Schedule Name

OS:Schedule:Day,
  {a87d3020-c53c-4678-bef8-4ebe11250a73}, !- Handle
  heating setpoint default day,           !- Name
  {0de2ae23-23a1-4e25-a3f0-0a1449d7eb36}, !- Schedule Type Limits Name
  ,                                       !- Interpolate to Timestep
  24,                                     !- Hour 1
  0,                                      !- Minute 1
  0;                                      !- Value Until Time 1

OS:Schedule:Rule,
  {7496fbc8-6fa9-4dd5-becf-c4993da7a17a}, !- Handle
  heating setpoint allday rule,           !- Name
  {c5c84358-3fce-4c80-9dc8-5b215c37e5f8}, !- Schedule Ruleset Name
  0,                                      !- Rule Order
  {6cbd2da1-14e0-437c-80fc-e19217b24d1a}, !- Day Schedule Name
  Yes,                                    !- Apply Sunday
  Yes,                                    !- Apply Monday
  Yes,                                    !- Apply Tuesday
  Yes,                                    !- Apply Wednesday
  Yes,                                    !- Apply Thursday
  Yes,                                    !- Apply Friday
  Yes,                                    !- Apply Saturday
  DateRange,                              !- Date Specification Type
  1,                                      !- Start Month
  1,                                      !- Start Day
  12,                                     !- End Month
  31;                                     !- End Day

OS:Schedule:Day,
  {6cbd2da1-14e0-437c-80fc-e19217b24d1a}, !- Handle
  heating setpoint day,                   !- Name
  {0de2ae23-23a1-4e25-a3f0-0a1449d7eb36}, !- Schedule Type Limits Name
  ,                                       !- Interpolate to Timestep
  24,                                     !- Hour 1
  0,                                      !- Minute 1
  20;                                     !- Value Until Time 1

OS:Schedule:Ruleset,
  {27ca592c-4047-488a-a7b8-e484ed64888d}, !- Handle
  cooling setpoint,                       !- Name
  {0de2ae23-23a1-4e25-a3f0-0a1449d7eb36}, !- Schedule Type Limits Name
  {2709ecaa-3ea1-4045-97d5-36407c2ef227}; !- Default Day Schedule Name

OS:Schedule:Day,
  {2709ecaa-3ea1-4045-97d5-36407c2ef227}, !- Handle
  cooling setpoint default day,           !- Name
  {0de2ae23-23a1-4e25-a3f0-0a1449d7eb36}, !- Schedule Type Limits Name
  ,                                       !- Interpolate to Timestep
  24,                                     !- Hour 1
  0,                                      !- Minute 1
  0;                                      !- Value Until Time 1

OS:Schedule:Rule,
  {e2d46560-2c0d-4e77-841f-276ca387f4b9}, !- Handle
  cooling setpoint allday rule,           !- Name
  {27ca592c-4047-488a-a7b8-e484ed64888d}, !- Schedule Ruleset Name
  0,                                      !- Rule Order
  {9eaa81ef-c010-48b9-80c0-05ce42263301}, !- Day Schedule Name
  Yes,                                    !- Apply Sunday
  Yes,                                    !- Apply Monday
  Yes,                                    !- Apply Tuesday
  Yes,                                    !- Apply Wednesday
  Yes,                                    !- Apply Thursday
  Yes,                                    !- Apply Friday
  Yes,                                    !- Apply Saturday
  DateRange,                              !- Date Specification Type
  1,                                      !- Start Month
  1,                                      !- Start Day
  12,                                     !- End Month
  31;                                     !- End Day

OS:Schedule:Day,
  {9eaa81ef-c010-48b9-80c0-05ce42263301}, !- Handle
  cooling setpoint day,                   !- Name
  {0de2ae23-23a1-4e25-a3f0-0a1449d7eb36}, !- Schedule Type Limits Name
  ,                                       !- Interpolate to Timestep
  24,                                     !- Hour 1
  0,                                      !- Minute 1
  25.5555555555556;                       !- Value Until Time 1

OS:ThermostatSetpoint:DualSetpoint,
  {31616738-cc77-4436-97df-de911f3c1c75}, !- Handle
  conditioned space temperature setpoint, !- Name
  {c5c84358-3fce-4c80-9dc8-5b215c37e5f8}, !- Heating Setpoint Temperature Schedule Name
  {27ca592c-4047-488a-a7b8-e484ed64888d}, !- Cooling Setpoint Temperature Schedule Name
  0;                                      !- Temperature Difference Between Cutout And Setpoint {deltaC}

OS:ScheduleTypeLimits,
  {0de2ae23-23a1-4e25-a3f0-0a1449d7eb36}, !- Handle
  Temperature,                            !- Name
  ,                                       !- Lower Limit Value
  ,                                       !- Upper Limit Value
  Continuous,                             !- Numeric Type
  Temperature;                            !- Unit Type

OS:Surface,
  {c259ac42-e28b-4491-90f8-73439e6ebc48}, !- Handle
  Roof1,                                  !- Name
  RoofCeiling,                            !- Surface Type
  {d04f0444-45ea-445c-8632-2d658eecdb5a}, !- Construction Name
  {1cb4a659-9dcc-49c1-a3fd-9f0cd378b6c8}, !- Space Name
  Outdoors,                               !- Outside Boundary Condition
  ,                                       !- Outside Boundary Condition Object
  SunExposed,                             !- Sun Exposure
  WindExposed,                            !- Wind Exposure
  ,                                       !- View Factor to Ground
  ,                                       !- Number of Vertices
  -26.9347048849634, 58.0557891618865, 2.4384, !- X,Y,Z Vertex 1 {m}
  -26.9347048849634, 46.7895631136661, 8.0715130241102, !- X,Y,Z Vertex 2 {m}
  -14.3386812381136, 46.7895631136661, 8.0715130241102, !- X,Y,Z Vertex 3 {m}
  -14.3386812381136, 58.0557891618865, 2.4384; !- X,Y,Z Vertex 4 {m}

OS:AdditionalProperties,
  {2bf5a125-2122-472a-99ee-3a7e80536a94}, !- Handle
  {c259ac42-e28b-4491-90f8-73439e6ebc48}, !- Object Name
  Length,                                 !- Feature Name 1
  Double,                                 !- Feature Data Type 1
  41.325536899113608,                     !- Feature Value 1
  Width,                                  !- Feature Name 2
  Double,                                 !- Feature Data Type 2
  41.325536899113601,                     !- Feature Value 2
  Azimuth,                                !- Feature Name 3
  Integer,                                !- Feature Data Type 3
  0,                                      !- Feature Value 3
  Tilt,                                   !- Feature Name 4
  Double,                                 !- Feature Data Type 4
  0.5,                                    !- Feature Value 4
  SurfaceType,                            !- Feature Name 5
  String,                                 !- Feature Data Type 5
  Roof;                                   !- Feature Value 5

OS:ThermalZone,
  {0fd11e9c-1071-41cf-b9ec-33190693dc86}, !- Handle
  attic - vented,                         !- Name
  1,                                      !- Multiplier
  ,                                       !- Ceiling Height {m}
  356.390921899745,                       !- Volume {m3}
  ,                                       !- Floor Area {m2}
  ,                                       !- Zone Inside Convection Algorithm
  ,                                       !- Zone Outside Convection Algorithm
  ,                                       !- Zone Conditioning Equipment List Name
  {1b94ee18-bd93-44ec-b579-f0797fcae340}, !- Zone Air Inlet Port List
  {e663b1bd-f167-4ce2-9a21-495518d167df}, !- Zone Air Exhaust Port List
  {00c3ade5-24db-417d-81ee-ace69f266bb8}, !- Zone Air Node Name
  {bc349fa9-0057-4848-b6e6-3c6b4a3af4da}, !- Zone Return Air Port List
  ,                                       !- Primary Daylighting Control Name
  ,                                       !- Fraction of Zone Controlled by Primary Daylighting Control
  ,                                       !- Secondary Daylighting Control Name
  ,                                       !- Fraction of Zone Controlled by Secondary Daylighting Control
  ,                                       !- Illuminance Map Name
  ,                                       !- Group Rendering Name
  ,                                       !- Thermostat Name
  No;                                     !- Use Ideal Air Loads

OS:Node,
  {fbc1353f-e13a-4fd2-bf63-16257403290d}, !- Handle
  Node 2,                                 !- Name
  {00c3ade5-24db-417d-81ee-ace69f266bb8}, !- Inlet Port
  ;                                       !- Outlet Port

OS:Connection,
  {00c3ade5-24db-417d-81ee-ace69f266bb8}, !- Handle
  {0fd11e9c-1071-41cf-b9ec-33190693dc86}, !- Source Object
  11,                                     !- Outlet Port
  {fbc1353f-e13a-4fd2-bf63-16257403290d}, !- Target Object
  2;                                      !- Inlet Port

OS:PortList,
  {1b94ee18-bd93-44ec-b579-f0797fcae340}, !- Handle
  {0fd11e9c-1071-41cf-b9ec-33190693dc86}; !- HVAC Component

OS:PortList,
  {e663b1bd-f167-4ce2-9a21-495518d167df}, !- Handle
  {0fd11e9c-1071-41cf-b9ec-33190693dc86}; !- HVAC Component

OS:PortList,
  {bc349fa9-0057-4848-b6e6-3c6b4a3af4da}, !- Handle
  {0fd11e9c-1071-41cf-b9ec-33190693dc86}; !- HVAC Component

OS:Sizing:Zone,
  {669b897f-2422-49b1-bb32-4b0d31398cc2}, !- Handle
  {0fd11e9c-1071-41cf-b9ec-33190693dc86}, !- Zone or ZoneList Name
  SupplyAirTemperature,                   !- Zone Cooling Design Supply Air Temperature Input Method
  14,                                     !- Zone Cooling Design Supply Air Temperature {C}
  11.11,                                  !- Zone Cooling Design Supply Air Temperature Difference {deltaC}
  SupplyAirTemperature,                   !- Zone Heating Design Supply Air Temperature Input Method
  40,                                     !- Zone Heating Design Supply Air Temperature {C}
  11.11,                                  !- Zone Heating Design Supply Air Temperature Difference {deltaC}
  0.0085,                                 !- Zone Cooling Design Supply Air Humidity Ratio {kg-H2O/kg-air}
  0.008,                                  !- Zone Heating Design Supply Air Humidity Ratio {kg-H2O/kg-air}
  ,                                       !- Zone Heating Sizing Factor
  ,                                       !- Zone Cooling Sizing Factor
  DesignDay,                              !- Cooling Design Air Flow Method
  ,                                       !- Cooling Design Air Flow Rate {m3/s}
  ,                                       !- Cooling Minimum Air Flow per Zone Floor Area {m3/s-m2}
  ,                                       !- Cooling Minimum Air Flow {m3/s}
  ,                                       !- Cooling Minimum Air Flow Fraction
  DesignDay,                              !- Heating Design Air Flow Method
  ,                                       !- Heating Design Air Flow Rate {m3/s}
  ,                                       !- Heating Maximum Air Flow per Zone Floor Area {m3/s-m2}
  ,                                       !- Heating Maximum Air Flow {m3/s}
  ,                                       !- Heating Maximum Air Flow Fraction
  No,                                     !- Account for Dedicated Outdoor Air System
  NeutralSupplyAir,                       !- Dedicated Outdoor Air System Control Strategy
  autosize,                               !- Dedicated Outdoor Air Low Setpoint Temperature for Design {C}
  autosize,                               !- Dedicated Outdoor Air High Setpoint Temperature for Design {C}
  Sensible Load Only No Latent Load,      !- Zone Load Sizing Method
  HumidityRatioDifference,                !- Zone Latent Cooling Design Supply Air Humidity Ratio Input Method
  ,                                       !- Zone Dehumidification Design Supply Air Humidity Ratio {kgWater/kgDryAir}
  0.005,                                  !- Zone Cooling Design Supply Air Humidity Ratio Difference {kgWater/kgDryAir}
  HumidityRatioDifference,                !- Zone Latent Heating Design Supply Air Humidity Ratio Input Method
  ,                                       !- Zone Humidification Design Supply Air Humidity Ratio {kgWater/kgDryAir}
  0.005,                                  !- Zone Humidification Design Supply Air Humidity Ratio Difference {kgWater/kgDryAir}
  ,                                       !- Zone Humidistat Dehumidification Set Point Schedule Name
  ,                                       !- Zone Humidistat Humidification Set Point Schedule Name
  ,                                       !- Design Zone Air Distribution Effectiveness in Cooling Mode
  ,                                       !- Design Zone Air Distribution Effectiveness in Heating Mode
  ,                                       !- Design Zone Secondary Recirculation Fraction {dimensionless}
  ,                                       !- Design Minimum Zone Ventilation Efficiency {dimensionless}
  Coincident;                             !- Sizing Option

OS:ZoneHVAC:EquipmentList,
  {652fe252-791b-4856-9a52-c0cf41d400c8}, !- Handle
  Zone HVAC Equipment List 2,             !- Name
  {0fd11e9c-1071-41cf-b9ec-33190693dc86}; !- Thermal Zone

OS:AdditionalProperties,
  {3100d158-59e2-4c6c-a32b-255f3e4563e6}, !- Handle
  {0fd11e9c-1071-41cf-b9ec-33190693dc86}, !- Object Name
  ObjectType,                             !- Feature Name 1
  String,                                 !- Feature Data Type 1
  attic - vented;                         !- Feature Value 1

OS:Space,
  {1cb4a659-9dcc-49c1-a3fd-9f0cd378b6c8}, !- Handle
  attic - vented 1,                       !- Name
  ,                                       !- Space Type Name
  ,                                       !- Default Construction Set Name
  ,                                       !- Default Schedule Set Name
  ,                                       !- Direction of Relative North {deg}
  ,                                       !- X Origin {m}
  ,                                       !- Y Origin {m}
  ,                                       !- Z Origin {m}
  ,                                       !- Building Story Name
  {0fd11e9c-1071-41cf-b9ec-33190693dc86}, !- Thermal Zone Name
  ,                                       !- Part of Total Floor Area
  ,                                       !- Design Specification Outdoor Air Object Name
  ,                                       !- Building Unit Name
  356.390921899745;                       !- Volume {m3}

OS:Material,
  {7eb4a19d-7271-4380-b22f-6284a2b87fbd}, !- Handle
  asphalt or fiberglass shingles,         !- Name