
OS:Version,
  {ed8a0836-ad72-43b4-9267-3c220099a211}, !- Handle
  3.10.0;                                 !- Version Identifier

OS:SimulationControl,
  {1d220738-d395-402d-a01f-b2194530d061}, !- Handle
  ,                                       !- Do Zone Sizing Calculation
  ,                                       !- Do System Sizing Calculation
  ,                                       !- Do Plant Sizing Calculation
  No;                                     !- Run Simulation for Sizing Periods

OS:Timestep,
  {21ca2a05-9481-47a4-aba2-32f537eabc3a}, !- Handle
  1;                                      !- Number of Timesteps per Hour

OS:ShadowCalculation,
  {f650c916-fd52-45a0-b4d5-a41cbe24b755}, !- Handle
  PolygonClipping,                        !- Shading Calculation Method
  ,                                       !- Shading Calculation Update Frequency Method
  20,                                     !- Shading Calculation Update Frequency
  200,                                    !- Maximum Figures in Shadow Overlap Calculations
  ,                                       !- Polygon Clipping Algorithm
  512,                                    !- Pixel Counting Resolution
  ,                                       !- Sky Diffuse Modeling Algorithm
  No,                                     !- Output External Shading Calculation Results
  No,                                     !- Disable Self-Shading Within Shading Zone Groups
  No;                                     !- Disable Self-Shading From Shading Zone Groups to Other Zones

OS:SurfaceConvectionAlgorithm:Outside,
  {e48716a3-eab5-4b0e-85d4-212fef890f70}, !- Handle
  DOE-2;                                  !- Algorithm

OS:SurfaceConvectionAlgorithm:Inside,
  {ae091e31-7886-4d6c-9921-0a0687d9bd87}, !- Handle
  TARP;                                   !- Algorithm

OS:ZoneCapacitanceMultiplier:ResearchSpecial,
  {f9e9d7a9-6464-41e4-9971-c74215a0079b}, !- Handle
  7,                                      !- Temperature Capacity Multiplier
  15,                                     !- Humidity Capacity Multiplier
  ;                                       !- Carbon Dioxide Capacity Multiplier

OS:ConvergenceLimits,
  {2b399f83-0b26-46de-9fb2-00dea64940a5}, !- Handle
  0;                                      !- Minimum System Timestep {minutes}

OS:RunPeriod,
  {d0d5b0e7-5edd-458a-9bf7-923f9edbd397}, !- Handle
  Run Period 1,                           !- Name
  1,                                      !- Begin Month
  1,                                      !- Begin Day of Month
  12,                                     !- End Month
  31,                                     !- End Day of Month
  ,                                       !- Use Weather File Holidays and Special Days
  ,                                       !- Use Weather File Daylight Saving Period
  ,                                       !- Apply Weekend Holiday Rule
  ,                                       !- Use Weather File Rain Indicators
  ,                                       !- Use Weather File Snow Indicators
  ;                                       !- Number of Times Runperiod to be Repeated

OS:PerformancePrecisionTradeoffs,
  {51de0769-7ad2-410b-921e-ecaf80f11092}, !- Handle
  ,                                       !- Use Coil Direct Solutions
  CarrollMRT;                             !- Zone Radiant Exchange Algorithm

OS:WeatherFile,
  {225e1634-36ea-4cf7-bf25-0e1ab805d673}, !- Handle
  Buffalo Niagara Intl Ap,                !- City
  NY,                                     !- State Province Region
  USA,                                    !- Country
  TMY3,                                   !- Data Source
  725280,                                 !- WMO Number
  42.93,                                  !- Latitude {deg}
  -78.73,                                 !- Longitude {deg}
  -5,                                     !- Time Zone {hr}
  215,                                    !- Elevation {m}
  /Users/nmoore/github/urbanopt-example-geojson-project/example_project/weather/USA_NY_Buffalo-Greater.Buffalo.Intl.AP.725280_TMY3.epw, !- Url
  6B50E0FF,                               !- Checksum
  ,                                       !- Start Date Actual Year
  Sunday;                                 !- Start Day of Week

OS:YearDescription,
  {42b5f3bf-caa3-46e8-904c-5568ab2d8059}, !- Handle
  2007,                                   !- Calendar Year
  ,                                       !- Day of Week for Start Day
  ;                                       !- Is Leap Year

OS:Site,
  {bf85de1e-1b36-4ed9-bfef-5c705f35d99c}, !- Handle
  Buffalo Niagara Intl Ap_NY,             !- Name
  42.93,                                  !- Latitude {deg}
  -78.73,                                 !- Longitude {deg}
  -5,                                     !- Time Zone {hr}
  215,                                    !- Elevation {m}
  Suburbs,                                !- Terrain
  Yes;                                    !- Keep Site Location Information

OS:RunPeriodControl:DaylightSavingTime,
  {d3f2284d-37ea-4e14-9bb9-9761d21a3ee0}, !- Handle
  Mar 12,                                 !- Start Date
  Nov 5;                                  !- End Date

OS:Site:GroundTemperature:Shallow,
  {b5ea5e48-f7ec-4830-8be9-6b601c4daa70}, !- Handle
  4.30207395723828,                       !- January Surface Ground Temperature {C}
  2.29327249652502,                       !- February Surface Ground Temperature {C}
  2.13240047156047,                       !- March Surface Ground Temperature {C}
  3.08567940719286,                       !- April Surface Ground Temperature {C}
  6.91256312497526,                       !- May Surface Ground Temperature {C}
  10.7216195949507,                       !- June Surface Ground Temperature {C}
  14.0238679822574,                       !- July Surface Ground Temperature {C}
  16.1157611184724,                       !- August Surface Ground Temperature {C}
  16.2934789303462,                       !- September Surface Ground Temperature {C}
  14.5920754632847,                       !- October Surface Ground Temperature {C}
  11.374036348653,                        !- November Surface Ground Temperature {C}
  7.68182621661674;                       !- December Surface Ground Temperature {C}

OS:ThermalZone,
  {883bf6fb-14bc-4e6b-a500-e73dafe059fc}, !- Handle
  conditioned space,                      !- Name
  1,                                      !- Multiplier
  ,                                       !- Ceiling Height {m}
  692.06373070848,                        !- Volume {m3}
  ,                                       !- Floor Area {m2}
  ,                                       !- Zone Inside Convection Algorithm
  ,                                       !- Zone Outside Convection Algorithm
  ,                                       !- Zone Conditioning Equipment List Name
  {33a79c78-6287-4043-98ab-97965d394781}, !- Zone Air Inlet Port List
  {62097967-a534-4888-ab60-8d8281732f76}, !- Zone Air Exhaust Port List
  {bba4c92e-910b-454c-ab13-6e2bb1f61ca0}, !- Zone Air Node Name
  {8d93a604-6351-4c3b-8bf7-febf481eaf00}, !- Zone Return Air Port List
  ,                                       !- Primary Daylighting Control Name
  ,                                       !- Fraction of Zone Controlled by Primary Daylighting Control
  ,                                       !- Secondary Daylighting Control Name
  ,                                       !- Fraction of Zone Controlled by Secondary Daylighting Control
  ,                                       !- Illuminance Map Name
  ,                                       !- Group Rendering Name
  {a3ed3c0d-c7c1-4779-9783-fac076539d60}, !- Thermostat Name
  No;                                     !- Use Ideal Air Loads

OS:Node,
  {cba6714b-c3c7-4b2a-b961-846def46d03d}, !- Handle
  Node 1,                                 !- Name
  {bba4c92e-910b-454c-ab13-6e2bb1f61ca0}, !- Inlet Port
  ;                                       !- Outlet Port

OS:Connection,
  {bba4c92e-910b-454c-ab13-6e2bb1f61ca0}, !- Handle
  {883bf6fb-14bc-4e6b-a500-e73dafe059fc}, !- Source Object
  11,                                     !- Outlet Port
  {cba6714b-c3c7-4b2a-b961-846def46d03d}, !- Target Object
  2;                                      !- Inlet Port

OS:PortList,
  {33a79c78-6287-4043-98ab-97965d394781}, !- Handle
  {883bf6fb-14bc-4e6b-a500-e73dafe059fc}, !- HVAC Component
  {b9072b09-543b-451b-b02b-28ecb86441e9}; !- Port 1

OS:PortList,
  {62097967-a534-4888-ab60-8d8281732f76}, !- Handle
  {883bf6fb-14bc-4e6b-a500-e73dafe059fc}; !- HVAC Component

OS:PortList,
  {8d93a604-6351-4c3b-8bf7-febf481eaf00}, !- Handle
  {883bf6fb-14bc-4e6b-a500-e73dafe059fc}, !- HVAC Component
  {d3cc5ccb-80f2-4fde-ba53-a13cc7cce5a9}; !- Port 1

OS:Sizing:Zone,
  {9f748bc9-11bf-4870-ba59-87b3d93bff2e}, !- Handle
  {883bf6fb-14bc-4e6b-a500-e73dafe059fc}, !- Zone or ZoneList Name
  SupplyAirTemperature,                   !- Zone Cooling Design Supply Air Temperature Input Method
  14,                                     !- Zone Cooling Design Supply Air Temperature {C}
  11.11,                                  !- Zone Cooling Design Supply Air Temperature Difference {deltaC}
  SupplyAirTemperature,                   !- Zone Heating Design Supply Air Temperature Input Method
  40,                                     !- Zone Heating Design Supply Air Temperature {C}
  11.11,                                  !- Zone Heating Design Supply Air Temperature Difference {deltaC}
  0.0085,                                 !- Zone Cooling Design Supply Air Humidity Ratio {kg-H2O/kg-air}
  0.008,                                  !- Zone Heating Design Supply Air Humidity Ratio {kg-H2O/kg-air}
  ,                                       !- Zone Heating Sizing Factor
  ,                                       !- Zone Cooling Sizing Factor
  DesignDay,                              !- Cooling Design Air Flow Method
  ,                                       !- Cooling Design Air Flow Rate {m3/s}
  ,                                       !- Cooling Minimum Air Flow per Zone Floor Area {m3/s-m2}
  ,                                       !- Cooling Minimum Air Flow {m3/s}
  ,                                       !- Cooling Minimum Air Flow Fraction
  DesignDay,                              !- Heating Design Air Flow Method
  ,                                       !- Heating Design Air Flow Rate {m3/s}
  ,                                       !- Heating Maximum Air Flow per Zone Floor Area {m3/s-m2}
  ,                                       !- Heating Maximum Air Flow {m3/s}
  ,                                       !- Heating Maximum Air Flow Fraction
  No,                                     !- Account for Dedicated Outdoor Air System
  NeutralSupplyAir,                       !- Dedicated Outdoor Air System Control Strategy
  autosize,                               !- Dedicated Outdoor Air Low Setpoint Temperature for Design {C}
  autosize,                               !- Dedicated Outdoor Air High Setpoint Temperature for Design {C}
  Sensible Load Only No Latent Load,      !- Zone Load Sizing Method
  HumidityRatioDifference,                !- Zone Latent Cooling Design Supply Air Humidity Ratio Input Method
  ,                                       !- Zone Dehumidification Design Supply Air Humidity Ratio {kgWater/kgDryAir}
  0.005,                                  !- Zone Cooling Design Supply Air Humidity Ratio Difference {kgWater/kgDryAir}
  HumidityRatioDifference,                !- Zone Latent Heating Design Supply Air Humidity Ratio Input Method
  ,                                       !- Zone Humidification Design Supply Air Humidity Ratio {kgWater/kgDryAir}
  0.005,                                  !- Zone Humidification Design Supply Air Humidity Ratio Difference {kgWater/kgDryAir}
  ,                                       !- Zone Humidistat Dehumidification Set Point Schedule Name
  ,                                       !- Zone Humidistat Humidification Set Point Schedule Name
  ,                                       !- Design Zone Air Distribution Effectiveness in Cooling Mode
  ,                                       !- Design Zone Air Distribution Effectiveness in Heating Mode
  ,                                       !- Design Zone Secondary Recirculation Fraction {dimensionless}
  ,                                       !- Design Minimum Zone Ventilation Efficiency {dimensionless}
  Coincident;                             !- Sizing Option

OS:ZoneHVAC:EquipmentList,
  {015ab4af-ccdc-43ae-9d69-4a77cc2f1c0a}, !- Handle
  Zone HVAC Equipment List 1,             !- Name
  {883bf6fb-14bc-4e6b-a500-e73dafe059fc}, !- Thermal Zone
  ,                                       !- Load Distribution Scheme
  {875c65e7-2442-4c1f-b108-8b4f1a24eb6d}, !- Zone Equipment 1
  1,                                      !- Zone Equipment Cooling Sequence 1
  1,                                      !- Zone Equipment Heating or No-Load Sequence 1
  {9db68631-46ae-4a69-80f6-66e83a875268}, !- Zone Equipment Sequential Cooling Fraction Schedule Name 1
  {85829951-39c6-4024-a0c0-0ab0f80ffea6}; !- Zone Equipment Sequential Heating Fraction Schedule Name 1

OS:AdditionalProperties,
  {9573d851-4bbc-4f0b-86eb-46e124333e92}, !- Handle
  {883bf6fb-14bc-4e6b-a500-e73dafe059fc}, !- Object Name
  ObjectType,                             !- Feature Name 1
  String,                                 !- Feature Data Type 1
  conditioned space;                      !- Feature Value 1

OS:Space,
  {bf54620f-9ded-4aa6-b031-fa590246319e}, !- Handle
  conditioned space 1,                    !- Name
  ,                                       !- Space Type Name
  ,                                       !- Default Construction Set Name
  ,                                       !- Default Schedule Set Name
  ,                                       !- Direction of Relative North {deg}
  ,                                       !- X Origin {m}
  ,                                       !- Y Origin {m}
  ,                                       !- Z Origin {m}
  ,                                       !- Building Story Name
  {883bf6fb-14bc-4e6b-a500-e73dafe059fc}, !- Thermal Zone Name
  ,                                       !- Part of Total Floor Area
  ,                                       !- Design Specification Outdoor Air Object Name
  ,                                       !- Building Unit Name
  692.06373070848;                        !- Volume {m3}

OS:Schedule:Ruleset,
  {4147d457-1488-410c-96d8-9845dee31f54}, !- Handle
  heating setpoint,                       !- Name
  {27a666f4-bf0d-420b-9ebb-37747954088a}, !- Schedule Type Limits Name
  {f7748902-f154-434f-9942-e45f873602fd}; !- Default Day Schedule Name

OS:Schedule:Day,
  {f7748902-f154-434f-9942-e45f873602fd}, !- Handle
  heating setpoint default day,           !- Name
  {27a666f4-bf0d-420b-9ebb-37747954088a}, !- Schedule Type Limits Name
  ,                                       !- Interpolate to Timestep
  24,                                     !- Hour 1
  0,                                      !- Minute 1
  0;                                      !- Value Until Time 1

OS:Schedule:Rule,
  {f0468bd8-6a35-4c40-9bb1-5a3e439fbebb}, !- Handle
  heating setpoint allday rule,           !- Name
  {4147d457-1488-410c-96d8-9845dee31f54}, !- Schedule Ruleset Name
  0,                                      !- Rule Order
  {dc63be75-5ac5-42af-b589-e8af00660f94}, !- Day Schedule Name
  Yes,                                    !- Apply Sunday
  Yes,                                    !- Apply Monday
  Yes,                                    !- Apply Tuesday
  Yes,                                    !- Apply Wednesday
  Yes,                                    !- Apply Thursday
  Yes,                                    !- Apply Friday
  Yes,                                    !- Apply Saturday
  DateRange,                              !- Date Specification Type
  1,                                      !- Start Month
  1,                                      !- Start Day
  12,                                     !- End Month
  31;                                     !- End Day

OS:Schedule:Day,
  {dc63be75-5ac5-42af-b589-e8af00660f94}, !- Handle
  heating setpoint day,                   !- Name
  {27a666f4-bf0d-420b-9ebb-37747954088a}, !- Schedule Type Limits Name
  ,                                       !- Interpolate to Timestep
  24,                                     !- Hour 1
  0,                                      !- Minute 1
  20;                                     !- Value Until Time 1

OS:Schedule:Ruleset,
  {b6490329-f0df-4df5-986a-d6f966388fe6}, !- Handle
  cooling setpoint,                       !- Name
  {27a666f4-bf0d-420b-9ebb-37747954088a}, !- Schedule Type Limits Name
  {497ada51-9de0-40e7-ab50-d5168cf0751f}; !- Default Day Schedule Name

OS:Schedule:Day,
  {497ada51-9de0-40e7-ab50-d5168cf0751f}, !- Handle
  cooling setpoint default day,           !- Name
  {27a666f4-bf0d-420b-9ebb-37747954088a}, !- Schedule Type Limits Name
  ,                                       !- Interpolate to Timestep
  24,                                     !- Hour 1
  0,                                      !- Minute 1
  0;                                      !- Value Until Time 1

OS:Schedule:Rule,
  {4624ae3c-a833-4720-8756-f8110f939c40}, !- Handle
  cooling setpoint allday rule,           !- Name
  {b6490329-f0df-4df5-986a-d6f966388fe6}, !- Schedule Ruleset Name
  0,                                      !- Rule Order
  {c26314c5-460f-4402-8993-b6145ccdc66c}, !- Day Schedule Name
  Yes,                                    !- Apply Sunday
  Yes,                                    !- Apply Monday
  Yes,                                    !- Apply Tuesday
  Yes,                                    !- Apply Wednesday
  Yes,                                    !- Apply Thursday
  Yes,                                    !- Apply Friday
  Yes,                                    !- Apply Saturday
  DateRange,                              !- Date Specification Type
  1,                                      !- Start Month
  1,                                      !- Start Day
  12,                                     !- End Month
  31;                                     !- End Day

OS:Schedule:Day,
  {c26314c5-460f-4402-8993-b6145ccdc66c}, !- Handle
  cooling setpoint day,                   !- Name
  {27a666f4-bf0d-420b-9ebb-37747954088a}, !- Schedule Type Limits Name
  ,                                       !- Interpolate to Timestep
  24,                                     !- Hour 1
  0,                                      !- Minute 1
  25.5555555555556;                       !- Value Until Time 1

OS:ThermostatSetpoint:DualSetpoint,
  {a3ed3c0d-c7c1-4779-9783-fac076539d60}, !- Handle
  conditioned space temperature setpoint, !- Name
  {4147d457-1488-410c-96d8-9845dee31f54}, !- Heating Setpoint Temperature Schedule Name
  {b6490329-f0df-4df5-986a-d6f966388fe6}, !- Cooling Setpoint Temperature Schedule Name
  0;                                      !- Temperature Difference Between Cutout And Setpoint {deltaC}

OS:ScheduleTypeLimits,
  {27a666f4-bf0d-420b-9ebb-37747954088a}, !- Handle
  Temperature,                            !- Name
  ,                                       !- Lower Limit Value
  ,                                       !- Upper Limit Value
  Continuous,                             !- Numeric Type
  Temperature;                            !- Unit Type

OS:Surface,
  {d41c0e85-9555-4b01-b725-7eecc79f7bc5}, !- Handle
  Roof1,                                  !- Name
  RoofCeiling,                            !- Surface Type
  {8995dd36-b5e0-4692-8d4a-5909f2384f45}, !- Construction Name
  {bd01e9cd-e18b-439e-924d-2ccb7cbdb906}, !- Space Name
  Outdoors,                               !- Outside Boundary Condition
  ,                                       !- Outside Boundary Condition Object
  SunExposed,                             !- Sun Exposure
  WindExposed,                            !- Wind Exposure
  ,                                       !- View Factor to Ground
  ,                                       !- Number of Vertices
  -26.9347048849634, 58.0557891618865, 2.4384, !- X,Y,Z Vertex 1 {m}
  -26.9347048849634, 46.7895631136661, 8.0715130241102, !- X,Y,Z Vertex 2 {m}
  -14.3386812381136, 46.7895631136661, 8.0715130241102, !- X,Y,Z Vertex 3 {m}
  -14.3386812381136, 58.0557891618865, 2.4384; !- X,Y,Z Vertex 4 {m}

OS:AdditionalProperties,
  {24ec3c57-9839-40ee-8318-e2d1b1b59087}, !- Handle
  {d41c0e85-9555-4b01-b725-7eecc79f7bc5}, !- Object Name
  Length,                                 !- Feature Name 1
  Double,                                 !- Feature Data Type 1
  41.325536899113608,                     !- Feature Value 1
  Width,                                  !- Feature Name 2
  Double,                                 !- Feature Data Type 2
  41.325536899113601,                     !- Feature Value 2
  Azimuth,                                !- Feature Name 3
  Integer,                                !- Feature Data Type 3
  0,                                      !- Feature Value 3
  Tilt,                                   !- Feature Name 4
  Double,                                 !- Feature Data Type 4
  0.5,                                    !- Feature Value 4
  SurfaceType,                            !- Feature Name 5
  String,                                 !- Feature Data Type 5
  Roof;                                   !- Feature Value 5

OS:ThermalZone,
  {3cd2e5a5-9081-488c-ae76-c29f58ff9915}, !- Handle
  attic - vented,                         !- Name
  1,                                      !- Multiplier
  ,                                       !- Ceiling Height {m}
  356.390921899745,                       !- Volume {m3}
  ,                                       !- Floor Area {m2}
  ,                                       !- Zone Inside Convection Algorithm
  ,                                       !- Zone Outside Convection Algorithm
  ,                                       !- Zone Conditioning Equipment List Name
  {c2651544-9df2-49cc-8ff1-ece9ea515d53}, !- Zone Air Inlet Port List
  {3026b96f-f48a-4e7a-b539-3260d43b95e4}, !- Zone Air Exhaust Port List
  {6a6e8d29-5ec3-42d3-8fb7-7cb9f9c45778}, !- Zone Air Node Name
  {ea7a4b50-3ba1-41ed-9b1e-618ce590190b}, !- Zone Return Air Port List
  ,                                       !- Primary Daylighting Control Name
  ,                                       !- Fraction of Zone Controlled by Primary Daylighting Control
  ,                                       !- Secondary Daylighting Control Name
  ,                                       !- Fraction of Zone Controlled by Secondary Daylighting Control
  ,                                       !- Illuminance Map Name
  ,                                       !- Group Rendering Name
  ,                                       !- Thermostat Name
  No;                                     !- Use Ideal Air Loads

OS:Node,
  {8288019e-1541-46d1-ab36-b26defc7a728}, !- Handle
  Node 2,                                 !- Name
  {6a6e8d29-5ec3-42d3-8fb7-7cb9f9c45778}, !- Inlet Port
  ;                                       !- Outlet Port

OS:Connection,
  {6a6e8d29-5ec3-42d3-8fb7-7cb9f9c45778}, !- Handle
  {3cd2e5a5-9081-488c-ae76-c29f58ff9915}, !- Source Object
  11,                                     !- Outlet Port
  {8288019e-1541-46d1-ab36-b26defc7a728}, !- Target Object
  2;                                      !- Inlet Port

OS:PortList,
  {c2651544-9df2-49cc-8ff1-ece9ea515d53}, !- Handle
  {3cd2e5a5-9081-488c-ae76-c29f58ff9915}; !- HVAC Component

OS:PortList,
  {3026b96f-f48a-4e7a-b539-3260d43b95e4}, !- Handle
  {3cd2e5a5-9081-488c-ae76-c29f58ff9915}; !- HVAC Component

OS:PortList,
  {ea7a4b50-3ba1-41ed-9b1e-618ce590190b}, !- Handle
  {3cd2e5a5-9081-488c-ae76-c29f58ff9915}; !- HVAC Component

OS:Sizing:Zone,
  {65becd3a-10d7-4ada-883c-1e4c800f6a73}, !- Handle
  {3cd2e5a5-9081-488c-ae76-c29f58ff9915}, !- Zone or ZoneList Name
  SupplyAirTemperature,                   !- Zone Cooling Design Supply Air Temperature Input Method
  14,                                     !- Zone Cooling Design Supply Air Temperature {C}
  11.11,                                  !- Zone Cooling Design Supply Air Temperature Difference {deltaC}
  SupplyAirTemperature,                   !- Zone Heating Design Supply Air Temperature Input Method
  40,                                     !- Zone Heating Design Supply Air Temperature {C}
  11.11,                                  !- Zone Heating Design Supply Air Temperature Difference {deltaC}
  0.0085,                                 !- Zone Cooling Design Supply Air Humidity Ratio {kg-H2O/kg-air}
  0.008,                                  !- Zone Heating Design Supply Air Humidity Ratio {kg-H2O/kg-air}
  ,                                       !- Zone Heating Sizing Factor
  ,                                       !- Zone Cooling Sizing Factor
  DesignDay,                              !- Cooling Design Air Flow Method
  ,                                       !- Cooling Design Air Flow Rate {m3/s}
  ,                                       !- Cooling Minimum Air Flow per Zone Floor Area {m3/s-m2}
  ,                                       !- Cooling Minimum Air Flow {m3/s}
  ,                                       !- Cooling Minimum Air Flow Fraction
  DesignDay,                              !- Heating Design Air Flow Method
  ,                                       !- Heating Design Air Flow Rate {m3/s}
  ,                                       !- Heating Maximum Air Flow per Zone Floor Area {m3/s-m2}
  ,                                       !- Heating Maximum Air Flow {m3/s}
  ,                                       !- Heating Maximum Air Flow Fraction
  No,                                     !- Account for Dedicated Outdoor Air System
  NeutralSupplyAir,                       !- Dedicated Outdoor Air System Control Strategy
  autosize,                               !- Dedicated Outdoor Air Low Setpoint Temperature for Design {C}
  autosize,                               !- Dedicated Outdoor Air High Setpoint Temperature for Design {C}
  Sensible Load Only No Latent Load,      !- Zone Load Sizing Method
  HumidityRatioDifference,                !- Zone Latent Cooling Design Supply Air Humidity Ratio Input Method
  ,                                       !- Zone Dehumidification Design Supply Air Humidity Ratio {kgWater/kgDryAir}
  0.005,                                  !- Zone Cooling Design Supply Air Humidity Ratio Difference {kgWater/kgDryAir}
  HumidityRatioDifference,                !- Zone Latent Heating Design Supply Air Humidity Ratio Input Method
  ,                                       !- Zone Humidification Design Supply Air Humidity Ratio {kgWater/kgDryAir}
  0.005,                                  !- Zone Humidification Design Supply Air Humidity Ratio Difference {kgWater/kgDryAir}
  ,                                       !- Zone Humidistat Dehumidification Set Point Schedule Name
  ,                                       !- Zone Humidistat Humidification Set Point Schedule Name
  ,                                       !- Design Zone Air Distribution Effectiveness in Cooling Mode
  ,                                       !- Design Zone Air Distribution Effectiveness in Heating Mode
  ,                                       !- Design Zone Secondary Recirculation Fraction {dimensionless}
  ,                                       !- Design Minimum Zone Ventilation Efficiency {dimensionless}
  Coincident;                             !- Sizing Option

OS:ZoneHVAC:EquipmentList,
  {89f312ee-fc5e-4eba-903a-3ec1f2a3e3af}, !- Handle
  Zone HVAC Equipment List 2,             !- Name
  {3cd2e5a5-9081-488c-ae76-c29f58ff9915}; !- Thermal Zone

OS:AdditionalProperties,
  {a2a5291a-ff7e-423a-a174-89b32c09cd64}, !- Handle
  {3cd2e5a5-9081-488c-ae76-c29f58ff9915}, !- Object Name
  ObjectType,                             !- Feature Name 1
  String,                                 !- Feature Data Type 1
  attic - vented;                         !- Feature Value 1

OS:Space,
  {bd01e9cd-e18b-439e-924d-2ccb7cbdb906}, !- Handle
  attic - vented 1,                       !- Name
  ,                                       !- Space Type Name
  ,                                       !- Default Construction Set Name
  ,                                       !- Default Schedule Set Name
  ,                                       !- Direction of Relative North {deg}
  ,                                       !- X Origin {m}
  ,                                       !- Y Origin {m}
  ,                                       !- Z Origin {m}
  ,                                       !- Building Story Name
  {3cd2e5a5-9081-488c-ae76-c29f58ff9915}, !- Thermal Zone Name
  ,                                       !- Part of Total Floor Area
  ,                                       !- Design Specification Outdoor Air Object Name
  ,                                       !- Building Unit Name
  356.390921899745;                       !- Volume {m3}

OS:Material,
  {5f21a2ba-dca2-4f6b-9c93-5b137a73dbc9}, !- Handle
  asphalt or fiberglass shingles,         !- Name
  Rough,                                  !- Roughness
  0.00635,                                !- Thickness {m}
  0.162714,                               !- Conductivity {W/m-K}
  1121.4,                                 !- Density {kg/m3}
  1465.45,                                !- Specific Heat {J/kg-K}
  0.9,                                    !- Thermal Absorptance
  0.85,                                   !- Solar Absorptance