
OS:Version,
  {aadd0c07-b6bd-4b0e-b1d5-939704b3db0b}, !- Handle
  3.9.0;                                  !- Version Identifier

OS:SimulationControl,
  {988fb04e-6539-44fc-8980-c75637df141d}, !- Handle
  ,                                       !- Do Zone Sizing Calculation
  ,                                       !- Do System Sizing Calculation
  ,                                       !- Do Plant Sizing Calculation
  No;                                     !- Run Simulation for Sizing Periods

OS:Timestep,
  {67603ff6-940a-4da7-8c29-94930dcffc7c}, !- Handle
  1;                                      !- Number of Timesteps per Hour

OS:ShadowCalculation,
  {bdc550d0-d0ca-4408-b0c6-9eef02540d1e}, !- Handle
  PolygonClipping,                        !- Shading Calculation Method
  ,                                       !- Shading Calculation Update Frequency Method
  20,                                     !- Shading Calculation Update Frequency
  200,                                    !- Maximum Figures in Shadow Overlap Calculations
  ,                                       !- Polygon Clipping Algorithm
  512,                                    !- Pixel Counting Resolution
  ,                                       !- Sky Diffuse Modeling Algorithm
  No,                                     !- Output External Shading Calculation Results
  No,                                     !- Disable Self-Shading Within Shading Zone Groups
  No;                                     !- Disable Self-Shading From Shading Zone Groups to Other Zones

OS:SurfaceConvectionAlgorithm:Outside,
  {7e34d0a7-9bfc-4e44-9ebf-3730b1cf61ad}, !- Handle
  DOE-2;                                  !- Algorithm

OS:SurfaceConvectionAlgorithm:Inside,
  {7ee17454-a061-4961-9a17-b0adfb2bc320}, !- Handle
  TARP;                                   !- Algorithm

OS:ZoneCapacitanceMultiplier:ResearchSpecial,
  {d00609da-fe4e-49c1-aeff-dd79f0e58952}, !- Handle
  7,                                      !- Temperature Capacity Multiplier
  15,                                     !- Humidity Capacity Multiplier
  ;                                       !- Carbon Dioxide Capacity Multiplier

OS:ConvergenceLimits,
  {0fcdb058-0c5d-4366-b270-ffb846c8d852}, !- Handle
  0;                                      !- Minimum System Timestep {minutes}

OS:RunPeriod,
  {a3d28f13-d6fe-4f20-8316-ac583487de23}, !- Handle
  Run Period 1,                           !- Name
  1,                                      !- Begin Month
  1,                                      !- Begin Day of Month
  12,                                     !- End Month
  31,                                     !- End Day of Month
  ,                                       !- Use Weather File Holidays and Special Days
  ,                                       !- Use Weather File Daylight Saving Period
  ,                                       !- Apply Weekend Holiday Rule
  ,                                       !- Use Weather File Rain Indicators
  ,                                       !- Use Weather File Snow Indicators
  ;                                       !- Number of Times Runperiod to be Repeated

OS:PerformancePrecisionTradeoffs,
  {c4db726a-a2df-4de4-9411-748d4ad265a3}, !- Handle
  ,                                       !- Use Coil Direct Solutions
  CarrollMRT;                             !- Zone Radiant Exchange Algorithm

OS:WeatherFile,
  {4b28fc62-f97c-4bb2-953f-a82dde16e20c}, !- Handle
  Buffalo Niagara Intl Ap,                !- City
  NY,                                     !- State Province Region
  USA,                                    !- Country
  TMY3,                                   !- Data Source
  725280,                                 !- WMO Number
  42.93,                                  !- Latitude {deg}
  -78.73,                                 !- Longitude {deg}
  -5,                                     !- Time Zone {hr}
  215,                                    !- Elevation {m}
  /Users/nmoore/github/urbanopt-example-geojson-project/example_project/weather/USA_NY_Buffalo-Greater.Buffalo.Intl.AP.725280_TMY3.epw, !- Url
  6B50E0FF,                               !- Checksum
  ,                                       !- Start Date Actual Year
  Sunday;                                 !- Start Day of Week

OS:YearDescription,
  {ec7b5485-5cd0-4b3d-803d-16a8369b400e}, !- Handle
  2007,                                   !- Calendar Year
  ,                                       !- Day of Week for Start Day
  ;                                       !- Is Leap Year

OS:Site,
  {5b21d46b-ed89-49b6-bd3b-131ee85ce277}, !- Handle
  Buffalo Niagara Intl Ap_NY,             !- Name
  42.93,                                  !- Latitude {deg}
  -78.73,                                 !- Longitude {deg}
  -5,                                     !- Time Zone {hr}
  215,                                    !- Elevation {m}
  Suburbs,                                !- Terrain
  Yes;                                    !- Keep Site Location Information

OS:RunPeriodControl:DaylightSavingTime,
  {0b5815c9-d69e-4974-9c66-f9be986d3d63}, !- Handle
  Mar 12,                                 !- Start Date
  Nov 5;                                  !- End Date

OS:Site:GroundTemperature:Shallow,
  {1597db83-579a-47f3-883f-3255a51e4fed}, !- Handle
  4.30207395723828,                       !- January Surface Ground Temperature {C}
  2.29327249652502,                       !- February Surface Ground Temperature {C}
  2.13240047156047,                       !- March Surface Ground Temperature {C}
  3.08567940719286,                       !- April Surface Ground Temperature {C}
  6.91256312497526,                       !- May Surface Ground Temperature {C}
  10.7216195949507,                       !- June Surface Ground Temperature {C}
  14.0238679822574,                       !- July Surface Ground Temperature {C}
  16.1157611184724,                       !- August Surface Ground Temperature {C}
  16.2934789303462,                       !- September Surface Ground Temperature {C}
  14.5920754632847,                       !- October Surface Ground Temperature {C}
  11.374036348653,                        !- November Surface Ground Temperature {C}
  7.68182621661674;                       !- December Surface Ground Temperature {C}

OS:ThermalZone,
  {39b48f3f-5186-42c5-b799-63dd14b771c6}, !- Handle
  conditioned space,                      !- Name
  1,                                      !- Multiplier
  ,                                       !- Ceiling Height {m}
  692.06373070848,                        !- Volume {m3}
  ,                                       !- Floor Area {m2}
  ,                                       !- Zone Inside Convection Algorithm
  ,                                       !- Zone Outside Convection Algorithm
  ,                                       !- Zone Conditioning Equipment List Name
  {e3e12beb-f02b-4f8d-8b29-dedbbcef1a21}, !- Zone Air Inlet Port List
  {eeabaf5c-f34d-4f60-82f8-eeb9dddb3bec}, !- Zone Air Exhaust Port List
  {a66075d1-f0a1-44c3-9185-9dc772219b02}, !- Zone Air Node Name
  {77cf13b8-98f2-41e9-9c90-dcc193574876}, !- Zone Return Air Port List
  ,                                       !- Primary Daylighting Control Name
  ,                                       !- Fraction of Zone Controlled by Primary Daylighting Control
  ,                                       !- Secondary Daylighting Control Name
  ,                                       !- Fraction of Zone Controlled by Secondary Daylighting Control
  ,                                       !- Illuminance Map Name
  ,                                       !- Group Rendering Name
  {ca2cf194-1f31-4d47-b592-42bac7a7d224}, !- Thermostat Name
  No;                                     !- Use Ideal Air Loads

OS:Node,
  {83c81c44-4947-4cfb-9eff-430bc25eaa89}, !- Handle
  Node 1,                                 !- Name
  {a66075d1-f0a1-44c3-9185-9dc772219b02}, !- Inlet Port
  ;                                       !- Outlet Port

OS:Connection,
  {a66075d1-f0a1-44c3-9185-9dc772219b02}, !- Handle
  {39b48f3f-5186-42c5-b799-63dd14b771c6}, !- Source Object
  11,                                     !- Outlet Port
  {83c81c44-4947-4cfb-9eff-430bc25eaa89}, !- Target Object
  2;                                      !- Inlet Port

OS:PortList,
  {e3e12beb-f02b-4f8d-8b29-dedbbcef1a21}, !- Handle
  {39b48f3f-5186-42c5-b799-63dd14b771c6}, !- HVAC Component
  {e48c5a04-d15d-4e7b-95e8-599f8befe423}; !- Port 1

OS:PortList,
  {eeabaf5c-f34d-4f60-82f8-eeb9dddb3bec}, !- Handle
  {39b48f3f-5186-42c5-b799-63dd14b771c6}; !- HVAC Component

OS:PortList,
  {77cf13b8-98f2-41e9-9c90-dcc193574876}, !- Handle
  {39b48f3f-5186-42c5-b799-63dd14b771c6}, !- HVAC Component
  {64491f98-54f0-4da7-933c-8a6cb6d2894a}; !- Port 1

OS:Sizing:Zone,
  {63abd1c0-cf92-4214-b608-159f4c518182}, !- Handle
  {39b48f3f-5186-42c5-b799-63dd14b771c6}, !- Zone or ZoneList Name
  SupplyAirTemperature,                   !- Zone Cooling Design Supply Air Temperature Input Method
  14,                                     !- Zone Cooling Design Supply Air Temperature {C}
  11.11,                                  !- Zone Cooling Design Supply Air Temperature Difference {deltaC}
  SupplyAirTemperature,                   !- Zone Heating Design Supply Air Temperature Input Method
  40,                                     !- Zone Heating Design Supply Air Temperature {C}
  11.11,                                  !- Zone Heating Design Supply Air Temperature Difference {deltaC}
  0.0085,                                 !- Zone Cooling Design Supply Air Humidity Ratio {kg-H2O/kg-air}
  0.008,                                  !- Zone Heating Design Supply Air Humidity Ratio {kg-H2O/kg-air}
  ,                                       !- Zone Heating Sizing Factor
  ,                                       !- Zone Cooling Sizing Factor
  DesignDay,                              !- Cooling Design Air Flow Method
  ,                                       !- Cooling Design Air Flow Rate {m3/s}
  ,                                       !- Cooling Minimum Air Flow per Zone Floor Area {m3/s-m2}
  ,                                       !- Cooling Minimum Air Flow {m3/s}
  ,                                       !- Cooling Minimum Air Flow Fraction
  DesignDay,                              !- Heating Design Air Flow Method
  ,                                       !- Heating Design Air Flow Rate {m3/s}
  ,                                       !- Heating Maximum Air Flow per Zone Floor Area {m3/s-m2}
  ,                                       !- Heating Maximum Air Flow {m3/s}
  ,                                       !- Heating Maximum Air Flow Fraction
  No,                                     !- Account for Dedicated Outdoor Air System
  NeutralSupplyAir,                       !- Dedicated Outdoor Air System Control Strategy
  autosize,                               !- Dedicated Outdoor Air Low Setpoint Temperature for Design {C}
  autosize,                               !- Dedicated Outdoor Air High Setpoint Temperature for Design {C}
  Sensible Load Only No Latent Load,      !- Zone Load Sizing Method
  HumidityRatioDifference,                !- Zone Latent Cooling Design Supply Air Humidity Ratio Input Method
  ,                                       !- Zone Dehumidification Design Supply Air Humidity Ratio {kgWater/kgDryAir}
  0.005,                                  !- Zone Cooling Design Supply Air Humidity Ratio Difference {kgWater/kgDryAir}
  HumidityRatioDifference,                !- Zone Latent Heating Design Supply Air Humidity Ratio Input Method
  ,                                       !- Zone Humidification Design Supply Air Humidity Ratio {kgWater/kgDryAir}
  0.005,                                  !- Zone Humidification Design Supply Air Humidity Ratio Difference {kgWater/kgDryAir}
  ,                                       !- Zone Humidistat Dehumidification Set Point Schedule Name
  ,                                       !- Zone Humidistat Humidification Set Point Schedule Name
  ,                                       !- Design Zone Air Distribution Effectiveness in Cooling Mode
  ,                                       !- Design Zone Air Distribution Effectiveness in Heating Mode
  ,                                       !- Design Zone Secondary Recirculation Fraction {dimensionless}
  ,                                       !- Design Minimum Zone Ventilation Efficiency {dimensionless}
  Coincident;                             !- Sizing Option

OS:ZoneHVAC:EquipmentList,
  {fd6aecc7-fc66-4ff3-be98-0774447850e4}, !- Handle
  Zone HVAC Equipment List 1,             !- Name
  {39b48f3f-5186-42c5-b799-63dd14b771c6}, !- Thermal Zone
  ,                                       !- Load Distribution Scheme
  {59ea9f62-975d-45bd-8468-e4d09a0b4f3e}, !- Zone Equipment 1
  1,                                      !- Zone Equipment Cooling Sequence 1
  1,                                      !- Zone Equipment Heating or No-Load Sequence 1
  {041f00a2-1a15-43ca-9006-b22db79923e1}, !- Zone Equipment Sequential Cooling Fraction Schedule Name 1
  {42edfbbe-0b82-40d9-bf22-460c1e2a1445}; !- Zone Equipment Sequential Heating Fraction Schedule Name 1

OS:AdditionalProperties,
  {e3b79a94-bdef-417a-9766-e7dbd2181422}, !- Handle
  {39b48f3f-5186-42c5-b799-63dd14b771c6}, !- Object Name
  ObjectType,                             !- Feature Name 1
  String,                                 !- Feature Data Type 1
  conditioned space;                      !- Feature Value 1

OS:Space,
  {755f5e2b-aa3b-4ae9-9baf-3bb03c84e18c}, !- Handle
  conditioned space 1,                    !- Name
  ,                                       !- Space Type Name
  ,                                       !- Default Construction Set Name
  ,                                       !- Default Schedule Set Name
  ,                                       !- Direction of Relative North {deg}
  ,                                       !- X Origin {m}
  ,                                       !- Y Origin {m}
  ,                                       !- Z Origin {m}
  ,                                       !- Building Story Name
  {39b48f3f-5186-42c5-b799-63dd14b771c6}, !- Thermal Zone Name
  ,                                       !- Part of Total Floor Area
  ,                                       !- Design Specification Outdoor Air Object Name
  ,                                       !- Building Unit Name
  692.06373070848;                        !- Volume {m3}

OS:Schedule:Ruleset,
  {b1d94bed-5fee-4b9a-99bf-cd44537949b9}, !- Handle
  heating setpoint,                       !- Name
  {f942be2b-2051-429f-9d71-eb00c4c80cc5}, !- Schedule Type Limits Name
  {5ebce91f-888e-4fad-a00d-a0c845acffec}; !- Default Day Schedule Name

OS:Schedule:Day,
  {5ebce91f-888e-4fad-a00d-a0c845acffec}, !- Handle
  heating setpoint default day,           !- Name
  {f942be2b-2051-429f-9d71-eb00c4c80cc5}, !- Schedule Type Limits Name
  ,                                       !- Interpolate to Timestep
  24,                                     !- Hour 1
  0,                                      !- Minute 1
  0;                                      !- Value Until Time 1

OS:Schedule:Rule,
  {ea233296-7ced-4e40-af32-121f1ab21cf3}, !- Handle
  heating setpoint allday rule,           !- Name
  {b1d94bed-5fee-4b9a-99bf-cd44537949b9}, !- Schedule Ruleset Name
  0,                                      !- Rule Order
  {e9391367-7a99-48c7-a12e-8db0e0c9b706}, !- Day Schedule Name
  Yes,                                    !- Apply Sunday
  Yes,                                    !- Apply Monday
  Yes,                                    !- Apply Tuesday
  Yes,                                    !- Apply Wednesday
  Yes,                                    !- Apply Thursday
  Yes,                                    !- Apply Friday
  Yes,                                    !- Apply Saturday
  DateRange,                              !- Date Specification Type
  1,                                      !- Start Month
  1,                                      !- Start Day
  12,                                     !- End Month
  31;                                     !- End Day

OS:Schedule:Day,
  {e9391367-7a99-48c7-a12e-8db0e0c9b706}, !- Handle
  heating setpoint day,                   !- Name
  {f942be2b-2051-429f-9d71-eb00c4c80cc5}, !- Schedule Type Limits Name
  ,                                       !- Interpolate to Timestep
  24,                                     !- Hour 1
  0,                                      !- Minute 1
  20;                                     !- Value Until Time 1

OS:Schedule:Ruleset,
  {df29055f-06ef-4d44-a164-85145f1eb1a8}, !- Handle
  cooling setpoint,                       !- Name
  {f942be2b-2051-429f-9d71-eb00c4c80cc5}, !- Schedule Type Limits Name
  {cc9b65dd-d75d-40df-a646-afe2a4ca16aa}; !- Default Day Schedule Name

OS:Schedule:Day,
  {cc9b65dd-d75d-40df-a646-afe2a4ca16aa}, !- Handle
  cooling setpoint default day,           !- Name
  {f942be2b-2051-429f-9d71-eb00c4c80cc5}, !- Schedule Type Limits Name
  ,                                       !- Interpolate to Timestep
  24,                                     !- Hour 1
  0,                                      !- Minute 1
  0;                                      !- Value Until Time 1

OS:Schedule:Rule,
  {c79c5bed-1b97-454f-9d5c-cb2832f66616}, !- Handle
  cooling setpoint allday rule,           !- Name
  {df29055f-06ef-4d44-a164-85145f1eb1a8}, !- Schedule Ruleset Name
  0,                                      !- Rule Order
  {90b22019-7c0b-4444-9f9e-368c9548719f}, !- Day Schedule Name
  Yes,                                    !- Apply Sunday
  Yes,                                    !- Apply Monday
  Yes,                                    !- Apply Tuesday
  Yes,                                    !- Apply Wednesday
  Yes,                                    !- Apply Thursday
  Yes,                                    !- Apply Friday
  Yes,                                    !- Apply Saturday
  DateRange,                              !- Date Specification Type
  1,                                      !- Start Month
  1,                                      !- Start Day
  12,                                     !- End Month
  31;                                     !- End Day

OS:Schedule:Day,
  {90b22019-7c0b-4444-9f9e-368c9548719f}, !- Handle
  cooling setpoint day,                   !- Name
  {f942be2b-2051-429f-9d71-eb00c4c80cc5}, !- Schedule Type Limits Name
  ,                                       !- Interpolate to Timestep
  24,                                     !- Hour 1
  0,                                      !- Minute 1
  25.5555555555556;                       !- Value Until Time 1

OS:ThermostatSetpoint:DualSetpoint,
  {ca2cf194-1f31-4d47-b592-42bac7a7d224}, !- Handle
  conditioned space temperature setpoint, !- Name
  {b1d94bed-5fee-4b9a-99bf-cd44537949b9}, !- Heating Setpoint Temperature Schedule Name
  {df29055f-06ef-4d44-a164-85145f1eb1a8}, !- Cooling Setpoint Temperature Schedule Name
  0;                                      !- Temperature Difference Between Cutout And Setpoint {deltaC}

OS:ScheduleTypeLimits,
  {f942be2b-2051-429f-9d71-eb00c4c80cc5}, !- Handle
  Temperature,                            !- Name
  ,                                       !- Lower Limit Value
  ,                                       !- Upper Limit Value
  Continuous,                             !- Numeric Type
  Temperature;                            !- Unit Type

OS:Surface,
  {e0fb0ecd-4029-49ea-bdbd-c60918029738}, !- Handle
  Roof1,                                  !- Name
  RoofCeiling,                            !- Surface Type
  {230acf35-7541-46a8-aa7c-db26f5fb925b}, !- Construction Name
  {bb7e4ccd-620c-421b-8930-c50afd73cb31}, !- Space Name
  Outdoors,                               !- Outside Boundary Condition
  ,                                       !- Outside Boundary Condition Object
  SunExposed,                             !- Sun Exposure
  WindExposed,                            !- Wind Exposure
  ,                                       !- View Factor to Ground
  ,                                       !- Number of Vertices
  -26.9347048849634, 58.0557891618865, 2.4384, !- X,Y,Z Vertex 1 {m}
  -26.9347048849634, 46.7895631136661, 8.0715130241102, !- X,Y,Z Vertex 2 {m}
  -14.3386812381136, 46.7895631136661, 8.0715130241102, !- X,Y,Z Vertex 3 {m}
  -14.3386812381136, 58.0557891618865, 2.4384; !- X,Y,Z Vertex 4 {m}

OS:AdditionalProperties,
  {73a58ca0-efa9-42bc-b9d6-6359d1dfde4d}, !- Handle
  {e0fb0ecd-4029-49ea-bdbd-c60918029738}, !- Object Name
  Length,                                 !- Feature Name 1
  Double,                                 !- Feature Data Type 1
  41.325536899113608,                     !- Feature Value 1
  Width,                                  !- Feature Name 2
  Double,                                 !- Feature Data Type 2
  41.325536899113601,                     !- Feature Value 2
  Azimuth,                                !- Feature Name 3
  Integer,                                !- Feature Data Type 3
  0,                                      !- Feature Value 3
  Tilt,                                   !- Feature Name 4
  Double,                                 !- Feature Data Type 4
  0.5,                                    !- Feature Value 4
  SurfaceType,                            !- Feature Name 5
  String,                                 !- Feature Data Type 5
  Roof;                                   !- Feature Value 5

OS:ThermalZone,
  {c3deccc2-45f2-4ad6-9113-aa98a93eb809}, !- Handle
  attic - vented,                         !- Name
  1,                                      !- Multiplier
  ,                                       !- Ceiling Height {m}
  356.389957095237,                       !- Volume {m3}
  ,                                       !- Floor Area {m2}
  ,                                       !- Zone Inside Convection Algorithm
  ,                                       !- Zone Outside Convection Algorithm
  ,                                       !- Zone Conditioning Equipment List Name
  {ac73c96c-702b-40b2-a60d-dbba8a97a007}, !- Zone Air Inlet Port List
  {64c4fa7b-b0e6-4fa8-9290-e1f72878a79c}, !- Zone Air Exhaust Port List
  {882c27a3-7c4b-436f-bb2c-c2c1a289c371}, !- Zone Air Node Name
  {cbada90c-f189-4573-9e52-835c02a81c4e}, !- Zone Return Air Port List
  ,                                       !- Primary Daylighting Control Name
  ,                                       !- Fraction of Zone Controlled by Primary Daylighting Control
  ,                                       !- Secondary Daylighting Control Name
  ,                                       !- Fraction of Zone Controlled by Secondary Daylighting Control
  ,                                       !- Illuminance Map Name
  ,                                       !- Group Rendering Name
  ,                                       !- Thermostat Name
  No;                                     !- Use Ideal Air Loads

OS:Node,
  {aee07e16-8253-4ea5-bb30-6cc6c5b76a4b}, !- Handle
  Node 2,                                 !- Name
  {882c27a3-7c4b-436f-bb2c-c2c1a289c371}, !- Inlet Port
  ;                                       !- Outlet Port

OS:Connection,
  {882c27a3-7c4b-436f-bb2c-c2c1a289c371}, !- Handle
  {c3deccc2-45f2-4ad6-9113-aa98a93eb809}, !- Source Object
  11,                                     !- Outlet Port
  {aee07e16-8253-4ea5-bb30-6cc6c5b76a4b}, !- Target Object
  2;                                      !- Inlet Port

OS:PortList,
  {ac73c96c-702b-40b2-a60d-dbba8a97a007}, !- Handle
  {c3deccc2-45f2-4ad6-9113-aa98a93eb809}; !- HVAC Component

OS:PortList,
  {64c4fa7b-b0e6-4fa8-9290-e1f72878a79c}, !- Handle
  {c3deccc2-45f2-4ad6-9113-aa98a93eb809}; !- HVAC Component

OS:PortList,
  {cbada90c-f189-4573-9e52-835c02a81c4e}, !- Handle
  {c3deccc2-45f2-4ad6-9113-aa98a93eb809}; !- HVAC Component

OS:Sizing:Zone,
  {4357dfd0-d4db-47ee-8bf6-bb8bcb32e501}, !- Handle
  {c3deccc2-45f2-4ad6-9113-aa98a93eb809}, !- Zone or ZoneList Name
  SupplyAirTemperature,                   !- Zone Cooling Design Supply Air Temperature Input Method
  14,                                     !- Zone Cooling Design Supply Air Temperature {C}
  11.11,                                  !- Zone Cooling Design Supply Air Temperature Difference {deltaC}
  SupplyAirTemperature,                   !- Zone Heating Design Supply Air Temperature Input Method
  40,                                     !- Zone Heating Design Supply Air Temperature {C}
  11.11,                                  !- Zone Heating Design Supply Air Temperature Difference {deltaC}
  0.0085,                                 !- Zone Cooling Design Supply Air Humidity Ratio {kg-H2O/kg-air}
  0.008,                                  !- Zone Heating Design Supply Air Humidity Ratio {kg-H2O/kg-air}
  ,                                       !- Zone Heating Sizing Factor
  ,                                       !- Zone Cooling Sizing Factor
  DesignDay,                              !- Cooling Design Air Flow Method
  ,                                       !- Cooling Design Air Flow Rate {m3/s}
  ,                                       !- Cooling Minimum Air Flow per Zone Floor Area {m3/s-m2}
  ,                                       !- Cooling Minimum Air Flow {m3/s}
  ,                                       !- Cooling Minimum Air Flow Fraction
  DesignDay,                              !- Heating Design Air Flow Method
  ,                                       !- Heating Design Air Flow Rate {m3/s}
  ,                                       !- Heating Maximum Air Flow per Zone Floor Area {m3/s-m2}
  ,                                       !- Heating Maximum Air Flow {m3/s}
  ,                                       !- Heating Maximum Air Flow Fraction
  No,                                     !- Account for Dedicated Outdoor Air System
  NeutralSupplyAir,                       !- Dedicated Outdoor Air System Control Strategy
  autosize,                               !- Dedicated Outdoor Air Low Setpoint Temperature for Design {C}
  autosize,                               !- Dedicated Outdoor Air High Setpoint Temperature for Design {C}
  Sensible Load Only No Latent Load,      !- Zone Load Sizing Method
  HumidityRatioDifference,                !- Zone Latent Cooling Design Supply Air Humidity Ratio Input Method
  ,                                       !- Zone Dehumidification Design Supply Air Humidity Ratio {kgWater/kgDryAir}
  0.005,                                  !- Zone Cooling Design Supply Air Humidity Ratio Difference {kgWater/kgDryAir}
  HumidityRatioDifference,                !- Zone Latent Heating Design Supply Air Humidity Ratio Input Method
  ,                                       !- Zone Humidification Design Supply Air Humidity Ratio {kgWater/kgDryAir}
  0.005,                                  !- Zone Humidification Design Supply Air Humidity Ratio Difference {kgWater/kgDryAir}
  ,                                       !- Zone Humidistat Dehumidification Set Point Schedule Name
  ,                                       !- Zone Humidistat Humidification Set Point Schedule Name
  ,                                       !- Design Zone Air Distribution Effectiveness in Cooling Mode
  ,                                       !- Design Zone Air Distribution Effectiveness in Heating Mode
  ,                                       !- Design Zone Secondary Recirculation Fraction {dimensionless}
  ,                                       !- Design Minimum Zone Ventilation Efficiency {dimensionless}
  Coincident;                             !- Sizing Option

OS:ZoneHVAC:EquipmentList,
  {2b0c9a82-2ca8-4685-ae0e-496319ed21b0}, !- Handle
  Zone HVAC Equipment List 2,             !- Name
  {c3deccc2-45f2-4ad6-9113-aa98a93eb809}; !- Thermal Zone

OS:AdditionalProperties,
  {54da13b0-f31b-4e3a-8982-5d0fb3c494a5}, !- Handle
  {c3deccc2-45f2-4ad6-9113-aa98a93eb809}, !- Object Name
  ObjectType,                             !- Feature Name 1
  String,                                 !- Feature Data Type 1
  attic - vented;                         !- Feature Value 1

OS:Space,
  {bb7e4ccd-620c-421b-8930-c50afd73cb31}, !- Handle
  attic - vented 1,                       !- Name
  ,                                       !- Space Type Name
  ,                                       !- Default Construction Set Name
  ,                                       !- Default Schedule Set Name
  ,                                       !- Direction of Relative North {deg}
  ,                                       !- X Origin {m}
  ,                                       !- Y Origin {m}
  ,                                       !- Z Origin {m}
  ,                                       !- Building Story Name
  {c3deccc2-45f2-4ad6-9113-aa98a93eb809}, !- Thermal Zone Name
  ,                                       !- Part of Total Floor Area
  ,                                       !- Design Specification Outdoor Air Object Name
  ,                                       !- Building Unit Name
  356.389957095237;                       !- Volume {m3}

OS:Material,
  {59657833-7895-4eb7-ba89-465d29d22f44}, !- Handle
  asphalt or fiberglass shingles,         !- Name
  Rough,                                  !- Roughness
  0.00635,                                !- Thickness {m}
  0.162714,                               !- Conductivity {W/m-K}
  1121.4,                                 !- Density {kg/m3}
  1465.45,                                !- Specific Heat {J/kg-K}
  0.9,                                    !- Thermal Absorptance
  0.85,                                   !- Solar Absorptance