
OS:Version,
  {44406b7a-2b7c-47c4-86b4-0f80d584574b}, !- Handle
  3.10.0;                                 !- Version Identifier

OS:SimulationControl,
  {1894bb3e-b2ce-4d9f-8f34-d975232172d0}, !- Handle
  ,                                       !- Do Zone Sizing Calculation
  ,                                       !- Do System Sizing Calculation
  ,                                       !- Do Plant Sizing Calculation
  No;                                     !- Run Simulation for Sizing Periods

OS:Timestep,
  {3819f297-26be-425d-acde-0a07a0c6f9cb}, !- Handle
  1;                                      !- Number of Timesteps per Hour

OS:ShadowCalculation,
  {3e1b2539-791d-4a5c-bba1-c946c62bfb8a}, !- Handle
  PolygonClipping,                        !- Shading Calculation Method
  ,                                       !- Shading Calculation Update Frequency Method
  20,                                     !- Shading Calculation Update Frequency
  200,                                    !- Maximum Figures in Shadow Overlap Calculations
  ,                                       !- Polygon Clipping Algorithm
  512,                                    !- Pixel Counting Resolution
  ,                                       !- Sky Diffuse Modeling Algorithm
  No,                                     !- Output External Shading Calculation Results
  No,                                     !- Disable Self-Shading Within Shading Zone Groups
  No;                                     !- Disable Self-Shading From Shading Zone Groups to Other Zones

OS:SurfaceConvectionAlgorithm:Outside,
  {486859b6-18da-4237-be23-248e82e8d448}, !- Handle
  DOE-2;                                  !- Algorithm

OS:SurfaceConvectionAlgorithm:Inside,
  {0623f528-25c0-43b6-baf1-ae8e04e8ce42}, !- Handle
  TARP;                                   !- Algorithm

OS:ZoneCapacitanceMultiplier:ResearchSpecial,
  {90159718-4a4b-4e23-a4a8-11dcfc4e2ae4}, !- Handle
  7,                                      !- Temperature Capacity Multiplier
  15,                                     !- Humidity Capacity Multiplier
  ;                                       !- Carbon Dioxide Capacity Multiplier

OS:ConvergenceLimits,
  {d6bd7f3e-a67a-4c6e-91ae-ef0044b878a8}, !- Handle
  0;                                      !- Minimum System Timestep {minutes}

OS:RunPeriod,
  {e34a22bb-3311-4e90-ba8c-3ebb73e294ea}, !- Handle
  Run Period 1,                           !- Name
  1,                                      !- Begin Month
  1,                                      !- Begin Day of Month
  12,                                     !- End Month
  31,                                     !- End Day of Month
  ,                                       !- Use Weather File Holidays and Special Days
  ,                                       !- Use Weather File Daylight Saving Period
  ,                                       !- Apply Weekend Holiday Rule
  ,                                       !- Use Weather File Rain Indicators
  ,                                       !- Use Weather File Snow Indicators
  ;                                       !- Number of Times Runperiod to be Repeated

OS:PerformancePrecisionTradeoffs,
  {65f160c9-2e66-41f8-a188-450d6a4e2479}, !- Handle
  ,                                       !- Use Coil Direct Solutions
  CarrollMRT;                             !- Zone Radiant Exchange Algorithm

OS:WeatherFile,
  {27d75019-5ad3-4292-8c46-bed82fc27265}, !- Handle
  Buffalo Niagara Intl Ap,                !- City
  NY,                                     !- State Province Region
  USA,                                    !- Country
  TMY3,                                   !- Data Source
  725280,                                 !- WMO Number
  42.93,                                  !- Latitude {deg}
  -78.73,                                 !- Longitude {deg}
  -5,                                     !- Time Zone {hr}
  215,                                    !- Elevation {m}
  /Users/nmoore/github/urbanopt-example-geojson-project/example_project/weather/USA_NY_Buffalo-Greater.Buffalo.Intl.AP.725280_TMY3.epw, !- Url
  6B50E0FF,                               !- Checksum
  ,                                       !- Start Date Actual Year
  Sunday;                                 !- Start Day of Week

OS:YearDescription,
  {046ab925-c3be-473a-bf79-3e4c2eb86e7a}, !- Handle
  2007,                                   !- Calendar Year
  ,                                       !- Day of Week for Start Day
  ;                                       !- Is Leap Year

OS:Site,
  {8d6e5639-0617-4b86-af84-cfcf09e4a440}, !- Handle
  Buffalo Niagara Intl Ap_NY,             !- Name
  42.93,                                  !- Latitude {deg}
  -78.73,                                 !- Longitude {deg}
  -5,                                     !- Time Zone {hr}
  215,                                    !- Elevation {m}
  Suburbs,                                !- Terrain
  Yes;                                    !- Keep Site Location Information

OS:RunPeriodControl:DaylightSavingTime,
  {77ca9fad-bcd0-4098-9e50-ba8487f3268f}, !- Handle
  Mar 12,                                 !- Start Date
  Nov 5;                                  !- End Date

OS:Site:GroundTemperature:Shallow,
  {bd1dea48-e7e0-42d5-80bb-e54bda57b162}, !- Handle
  4.30207395723828,                       !- January Surface Ground Temperature {C}
  2.29327249652502,                       !- February Surface Ground Temperature {C}
  2.13240047156047,                       !- March Surface Ground Temperature {C}
  3.08567940719286,                       !- April Surface Ground Temperature {C}
  6.91256312497526,                       !- May Surface Ground Temperature {C}
  10.7216195949507,                       !- June Surface Ground Temperature {C}
  14.0238679822574,                       !- July Surface Ground Temperature {C}
  16.1157611184724,                       !- August Surface Ground Temperature {C}
  16.2934789303462,                       !- September Surface Ground Temperature {C}
  14.5920754632847,                       !- October Surface Ground Temperature {C}
  11.374036348653,                        !- November Surface Ground Temperature {C}
  7.68182621661674;                       !- December Surface Ground Temperature {C}

OS:ThermalZone,
  {4df85113-949c-4aec-bb4e-0138a28cef4f}, !- Handle
  conditioned space,                      !- Name
  1,                                      !- Multiplier
  ,                                       !- Ceiling Height {m}
  692.06373070848,                        !- Volume {m3}
  ,                                       !- Floor Area {m2}
  ,                                       !- Zone Inside Convection Algorithm
  ,                                       !- Zone Outside Convection Algorithm
  ,                                       !- Zone Conditioning Equipment List Name
  {b0871ef5-54ba-424b-9250-931c1034b9af}, !- Zone Air Inlet Port List
  {3847182c-9137-4dd0-af01-9caa6eda702e}, !- Zone Air Exhaust Port List
  {bc774d63-4e54-4d03-9295-5e9118801315}, !- Zone Air Node Name
  {4e8d981a-0f14-4687-8e50-ae0ba4a42258}, !- Zone Return Air Port List
  ,                                       !- Primary Daylighting Control Name
  ,                                       !- Fraction of Zone Controlled by Primary Daylighting Control
  ,                                       !- Secondary Daylighting Control Name
  ,                                       !- Fraction of Zone Controlled by Secondary Daylighting Control
  ,                                       !- Illuminance Map Name
  ,                                       !- Group Rendering Name
  {7d0fea20-b6d7-4723-b67a-339d5afff10f}, !- Thermostat Name
  No;                                     !- Use Ideal Air Loads

OS:Node,
  {894eb714-8349-44d0-9725-13b83846fef6}, !- Handle
  Node 1,                                 !- Name
  {bc774d63-4e54-4d03-9295-5e9118801315}, !- Inlet Port
  ;                                       !- Outlet Port

OS:Connection,
  {bc774d63-4e54-4d03-9295-5e9118801315}, !- Handle
  {4df85113-949c-4aec-bb4e-0138a28cef4f}, !- Source Object
  11,                                     !- Outlet Port
  {894eb714-8349-44d0-9725-13b83846fef6}, !- Target Object
  2;                                      !- Inlet Port

OS:PortList,
  {b0871ef5-54ba-424b-9250-931c1034b9af}, !- Handle
  {4df85113-949c-4aec-bb4e-0138a28cef4f}; !- HVAC Component

OS:PortList,
  {3847182c-9137-4dd0-af01-9caa6eda702e}, !- Handle
  {4df85113-949c-4aec-bb4e-0138a28cef4f}; !- HVAC Component

OS:PortList,
  {4e8d981a-0f14-4687-8e50-ae0ba4a42258}, !- Handle
  {4df85113-949c-4aec-bb4e-0138a28cef4f}; !- HVAC Component

OS:Sizing:Zone,
  {ebec105e-882d-4876-8021-86152fb9d9a2}, !- Handle
  {4df85113-949c-4aec-bb4e-0138a28cef4f}, !- Zone or ZoneList Name
  SupplyAirTemperature,                   !- Zone Cooling Design Supply Air Temperature Input Method
  14,                                     !- Zone Cooling Design Supply Air Temperature {C}
  11.11,                                  !- Zone Cooling Design Supply Air Temperature Difference {deltaC}
  SupplyAirTemperature,                   !- Zone Heating Design Supply Air Temperature Input Method
  40,                                     !- Zone Heating Design Supply Air Temperature {C}
  11.11,                                  !- Zone Heating Design Supply Air Temperature Difference {deltaC}
  0.0085,                                 !- Zone Cooling Design Supply Air Humidity Ratio {kg-H2O/kg-air}
  0.008,                                  !- Zone Heating Design Supply Air Humidity Ratio {kg-H2O/kg-air}
  ,                                       !- Zone Heating Sizing Factor
  ,                                       !- Zone Cooling Sizing Factor
  DesignDay,                              !- Cooling Design Air Flow Method
  ,                                       !- Cooling Design Air Flow Rate {m3/s}
  ,                                       !- Cooling Minimum Air Flow per Zone Floor Area {m3/s-m2}
  ,                                       !- Cooling Minimum Air Flow {m3/s}
  ,                                       !- Cooling Minimum Air Flow Fraction
  DesignDay,                              !- Heating Design Air Flow Method
  ,                                       !- Heating Design Air Flow Rate {m3/s}
  ,                                       !- Heating Maximum Air Flow per Zone Floor Area {m3/s-m2}
  ,                                       !- Heating Maximum Air Flow {m3/s}
  ,                                       !- Heating Maximum Air Flow Fraction
  No,                                     !- Account for Dedicated Outdoor Air System
  NeutralSupplyAir,                       !- Dedicated Outdoor Air System Control Strategy
  autosize,                               !- Dedicated Outdoor Air Low Setpoint Temperature for Design {C}
  autosize,                               !- Dedicated Outdoor Air High Setpoint Temperature for Design {C}
  Sensible Load Only No Latent Load,      !- Zone Load Sizing Method
  HumidityRatioDifference,                !- Zone Latent Cooling Design Supply Air Humidity Ratio Input Method
  ,                                       !- Zone Dehumidification Design Supply Air Humidity Ratio {kgWater/kgDryAir}
  0.005,                                  !- Zone Cooling Design Supply Air Humidity Ratio Difference {kgWater/kgDryAir}
  HumidityRatioDifference,                !- Zone Latent Heating Design Supply Air Humidity Ratio Input Method
  ,                                       !- Zone Humidification Design Supply Air Humidity Ratio {kgWater/kgDryAir}
  0.005,                                  !- Zone Humidification Design Supply Air Humidity Ratio Difference {kgWater/kgDryAir}
  ,                                       !- Zone Humidistat Dehumidification Set Point Schedule Name
  ,                                       !- Zone Humidistat Humidification Set Point Schedule Name
  ,                                       !- Design Zone Air Distribution Effectiveness in Cooling Mode
  ,                                       !- Design Zone Air Distribution Effectiveness in Heating Mode
  ,                                       !- Design Zone Secondary Recirculation Fraction {dimensionless}
  ,                                       !- Design Minimum Zone Ventilation Efficiency {dimensionless}
  Coincident;                             !- Sizing Option

OS:ZoneHVAC:EquipmentList,
  {df959487-e49c-4888-9a0d-7ef81c07bf82}, !- Handle
  Zone HVAC Equipment List 1,             !- Name
  {4df85113-949c-4aec-bb4e-0138a28cef4f}, !- Thermal Zone
  ,                                       !- Load Distribution Scheme
  {0bf6e514-4734-4f6f-b0e1-322adf855ff1}, !- Zone Equipment 1
  1,                                      !- Zone Equipment Cooling Sequence 1
  1,                                      !- Zone Equipment Heating or No-Load Sequence 1
  {08ed5bce-3558-4a4b-b77e-3d3c1a858282}, !- Zone Equipment Sequential Cooling Fraction Schedule Name 1
  {a8e7d50e-a8f7-4815-801f-d8d8fd1f53cc}; !- Zone Equipment Sequential Heating Fraction Schedule Name 1

OS:AdditionalProperties,
  {c8a02563-5671-4ab3-a79e-d65a36a7e7ea}, !- Handle
  {4df85113-949c-4aec-bb4e-0138a28cef4f}, !- Object Name
  ObjectType,                             !- Feature Name 1
  String,                                 !- Feature Data Type 1
  conditioned space;                      !- Feature Value 1

OS:Space,
  {ba486b44-865e-466d-999c-183b7e34d8de}, !- Handle
  conditioned space 1,                    !- Name
  ,                                       !- Space Type Name
  ,                                       !- Default Construction Set Name
  ,                                       !- Default Schedule Set Name
  ,                                       !- Direction of Relative North {deg}
  ,                                       !- X Origin {m}
  ,                                       !- Y Origin {m}
  ,                                       !- Z Origin {m}
  ,                                       !- Building Story Name
  {4df85113-949c-4aec-bb4e-0138a28cef4f}, !- Thermal Zone Name
  ,                                       !- Part of Total Floor Area
  ,                                       !- Design Specification Outdoor Air Object Name
  ,                                       !- Building Unit Name
  692.06373070848;                        !- Volume {m3}

OS:Schedule:Ruleset,
  {81ea7da4-0791-4532-a219-86f7f02bc447}, !- Handle
  heating setpoint,                       !- Name
  {f639db27-27b9-48df-8af1-3740b4c61b50}, !- Schedule Type Limits Name
  {4454af3e-932e-4324-ad92-c07cd262cfa5}; !- Default Day Schedule Name

OS:Schedule:Day,
  {4454af3e-932e-4324-ad92-c07cd262cfa5}, !- Handle
  heating setpoint default day,           !- Name
  {f639db27-27b9-48df-8af1-3740b4c61b50}, !- Schedule Type Limits Name
  ,                                       !- Interpolate to Timestep
  24,                                     !- Hour 1
  0,                                      !- Minute 1
  0;                                      !- Value Until Time 1

OS:Schedule:Rule,
  {1d2c009e-b762-4418-a3c2-24a19563c91d}, !- Handle
  heating setpoint allday rule,           !- Name
  {81ea7da4-0791-4532-a219-86f7f02bc447}, !- Schedule Ruleset Name
  0,                                      !- Rule Order
  {28b684e2-e4a5-40f2-a9c1-764719c5bf0b}, !- Day Schedule Name
  Yes,                                    !- Apply Sunday
  Yes,                                    !- Apply Monday
  Yes,                                    !- Apply Tuesday
  Yes,                                    !- Apply Wednesday
  Yes,                                    !- Apply Thursday
  Yes,                                    !- Apply Friday
  Yes,                                    !- Apply Saturday
  DateRange,                              !- Date Specification Type
  1,                                      !- Start Month
  1,                                      !- Start Day
  12,                                     !- End Month
  31;                                     !- End Day

OS:Schedule:Day,
  {28b684e2-e4a5-40f2-a9c1-764719c5bf0b}, !- Handle
  heating setpoint day,                   !- Name
  {f639db27-27b9-48df-8af1-3740b4c61b50}, !- Schedule Type Limits Name
  ,                                       !- Interpolate to Timestep
  24,                                     !- Hour 1
  0,                                      !- Minute 1
  20;                                     !- Value Until Time 1

OS:Schedule:Ruleset,
  {451ca8ba-6fb1-43a9-a913-66750c2377a7}, !- Handle
  cooling setpoint,                       !- Name
  {f639db27-27b9-48df-8af1-3740b4c61b50}, !- Schedule Type Limits Name
  {254f7c65-0a85-4d93-bd28-6b7957ec2b5a}; !- Default Day Schedule Name

OS:Schedule:Day,
  {254f7c65-0a85-4d93-bd28-6b7957ec2b5a}, !- Handle
  cooling setpoint default day,           !- Name
  {f639db27-27b9-48df-8af1-3740b4c61b50}, !- Schedule Type Limits Name
  ,                                       !- Interpolate to Timestep
  24,                                     !- Hour 1
  0,                                      !- Minute 1
  0;                                      !- Value Until Time 1

OS:Schedule:Rule,
  {68eba46e-34e8-47e0-904b-358446460fa5}, !- Handle
  cooling setpoint allday rule,           !- Name
  {451ca8ba-6fb1-43a9-a913-66750c2377a7}, !- Schedule Ruleset Name
  0,                                      !- Rule Order
  {d2c58352-16b4-41bc-b0e7-7edd1afe55c9}, !- Day Schedule Name
  Yes,                                    !- Apply Sunday
  Yes,                                    !- Apply Monday
  Yes,                                    !- Apply Tuesday
  Yes,                                    !- Apply Wednesday
  Yes,                                    !- Apply Thursday
  Yes,                                    !- Apply Friday
  Yes,                                    !- Apply Saturday
  DateRange,                              !- Date Specification Type
  1,                                      !- Start Month
  1,                                      !- Start Day
  12,                                     !- End Month
  31;                                     !- End Day

OS:Schedule:Day,
  {d2c58352-16b4-41bc-b0e7-7edd1afe55c9}, !- Handle
  cooling setpoint day,                   !- Name
  {f639db27-27b9-48df-8af1-3740b4c61b50}, !- Schedule Type Limits Name
  ,                                       !- Interpolate to Timestep
  24,                                     !- Hour 1
  0,                                      !- Minute 1
  25.5555555555556;                       !- Value Until Time 1

OS:ThermostatSetpoint:DualSetpoint,
  {7d0fea20-b6d7-4723-b67a-339d5afff10f}, !- Handle
  conditioned space temperature setpoint, !- Name
  {81ea7da4-0791-4532-a219-86f7f02bc447}, !- Heating Setpoint Temperature Schedule Name
  {451ca8ba-6fb1-43a9-a913-66750c2377a7}, !- Cooling Setpoint Temperature Schedule Name
  0;                                      !- Temperature Difference Between Cutout And Setpoint {deltaC}

OS:ScheduleTypeLimits,
  {f639db27-27b9-48df-8af1-3740b4c61b50}, !- Handle
  Temperature,                            !- Name
  ,                                       !- Lower Limit Value
  ,                                       !- Upper Limit Value
  Continuous,                             !- Numeric Type
  Temperature;                            !- Unit Type

OS:Surface,
  {572bb22d-c357-4931-bd66-be4bb653b0d1}, !- Handle
  Roof1,                                  !- Name
  RoofCeiling,                            !- Surface Type
  {441ed83b-d82a-4806-b3b9-051fe83ecaf7}, !- Construction Name
  {fdbc29c2-0993-4087-8a6e-988907db8880}, !- Space Name
  Outdoors,                               !- Outside Boundary Condition
  ,                                       !- Outside Boundary Condition Object
  SunExposed,                             !- Sun Exposure
  WindExposed,                            !- Wind Exposure
  ,                                       !- View Factor to Ground
  ,                                       !- Number of Vertices
  -26.9347048849634, 58.0557891618865, 2.4384, !- X,Y,Z Vertex 1 {m}
  -26.9347048849634, 46.7895631136661, 8.0715130241102, !- X,Y,Z Vertex 2 {m}
  -14.3386812381136, 46.7895631136661, 8.0715130241102, !- X,Y,Z Vertex 3 {m}
  -14.3386812381136, 58.0557891618865, 2.4384; !- X,Y,Z Vertex 4 {m}

OS:AdditionalProperties,
  {0b162cb6-0357-4d73-9589-d7a00f11dfa5}, !- Handle
  {572bb22d-c357-4931-bd66-be4bb653b0d1}, !- Object Name
  Length,                                 !- Feature Name 1
  Double,                                 !- Feature Data Type 1
  41.325536899113608,                     !- Feature Value 1
  Width,                                  !- Feature Name 2
  Double,                                 !- Feature Data Type 2
  41.325536899113601,                     !- Feature Value 2
  Azimuth,                                !- Feature Name 3
  Integer,                                !- Feature Data Type 3
  0,                                      !- Feature Value 3
  Tilt,                                   !- Feature Name 4
  Double,                                 !- Feature Data Type 4
  0.5,                                    !- Feature Value 4
  SurfaceType,                            !- Feature Name 5
  String,                                 !- Feature Data Type 5
  Roof;                                   !- Feature Value 5

OS:ThermalZone,
  {cbfe1c9c-d457-4373-9e9a-47d9d9fb7574}, !- Handle
  attic - vented,                         !- Name
  1,                                      !- Multiplier
  ,                                       !- Ceiling Height {m}
  356.390921899745,                       !- Volume {m3}
  ,                                       !- Floor Area {m2}
  ,                                       !- Zone Inside Convection Algorithm
  ,                                       !- Zone Outside Convection Algorithm
  ,                                       !- Zone Conditioning Equipment List Name
  {8f2cc276-40c2-4458-b8ee-f05aa091479d}, !- Zone Air Inlet Port List
  {738d9632-157d-4765-9768-8eb81735f5b0}, !- Zone Air Exhaust Port List
  {56885c34-1791-4504-bdbc-8caae04fedcd}, !- Zone Air Node Name
  {eba8f29e-7e94-4d86-8270-5d3034cff4ae}, !- Zone Return Air Port List
  ,                                       !- Primary Daylighting Control Name
  ,                                       !- Fraction of Zone Controlled by Primary Daylighting Control
  ,                                       !- Secondary Daylighting Control Name
  ,                                       !- Fraction of Zone Controlled by Secondary Daylighting Control
  ,                                       !- Illuminance Map Name
  ,                                       !- Group Rendering Name
  ,                                       !- Thermostat Name
  No;                                     !- Use Ideal Air Loads

OS:Node,
  {607f1395-079d-4457-8e45-111a30cccc9e}, !- Handle
  Node 2,                                 !- Name
  {56885c34-1791-4504-bdbc-8caae04fedcd}, !- Inlet Port
  ;                                       !- Outlet Port

OS:Connection,
  {56885c34-1791-4504-bdbc-8caae04fedcd}, !- Handle
  {cbfe1c9c-d457-4373-9e9a-47d9d9fb7574}, !- Source Object
  11,                                     !- Outlet Port
  {607f1395-079d-4457-8e45-111a30cccc9e}, !- Target Object
  2;                                      !- Inlet Port

OS:PortList,
  {8f2cc276-40c2-4458-b8ee-f05aa091479d}, !- Handle
  {cbfe1c9c-d457-4373-9e9a-47d9d9fb7574}; !- HVAC Component

OS:PortList,
  {738d9632-157d-4765-9768-8eb81735f5b0}, !- Handle
  {cbfe1c9c-d457-4373-9e9a-47d9d9fb7574}; !- HVAC Component

OS:PortList,
  {eba8f29e-7e94-4d86-8270-5d3034cff4ae}, !- Handle
  {cbfe1c9c-d457-4373-9e9a-47d9d9fb7574}; !- HVAC Component

OS:Sizing:Zone,
  {92f8b694-5ebd-4a36-8998-e0a5c0afeda6}, !- Handle
  {cbfe1c9c-d457-4373-9e9a-47d9d9fb7574}, !- Zone or ZoneList Name
  SupplyAirTemperature,                   !- Zone Cooling Design Supply Air Temperature Input Method
  14,                                     !- Zone Cooling Design Supply Air Temperature {C}
  11.11,                                  !- Zone Cooling Design Supply Air Temperature Difference {deltaC}
  SupplyAirTemperature,                   !- Zone Heating Design Supply Air Temperature Input Method
  40,                                     !- Zone Heating Design Supply Air Temperature {C}
  11.11,                                  !- Zone Heating Design Supply Air Temperature Difference {deltaC}
  0.0085,                                 !- Zone Cooling Design Supply Air Humidity Ratio {kg-H2O/kg-air}
  0.008,                                  !- Zone Heating Design Supply Air Humidity Ratio {kg-H2O/kg-air}
  ,                                       !- Zone Heating Sizing Factor
  ,                                       !- Zone Cooling Sizing Factor
  DesignDay,                              !- Cooling Design Air Flow Method
  ,                                       !- Cooling Design Air Flow Rate {m3/s}
  ,                                       !- Cooling Minimum Air Flow per Zone Floor Area {m3/s-m2}
  ,                                       !- Cooling Minimum Air Flow {m3/s}
  ,                                       !- Cooling Minimum Air Flow Fraction
  DesignDay,                              !- Heating Design Air Flow Method
  ,                                       !- Heating Design Air Flow Rate {m3/s}
  ,                                       !- Heating Maximum Air Flow per Zone Floor Area {m3/s-m2}
  ,                                       !- Heating Maximum Air Flow {m3/s}
  ,                                       !- Heating Maximum Air Flow Fraction
  No,                                     !- Account for Dedicated Outdoor Air System
  NeutralSupplyAir,                       !- Dedicated Outdoor Air System Control Strategy
  autosize,                               !- Dedicated Outdoor Air Low Setpoint Temperature for Design {C}
  autosize,                               !- Dedicated Outdoor Air High Setpoint Temperature for Design {C}
  Sensible Load Only No Latent Load,      !- Zone Load Sizing Method
  HumidityRatioDifference,                !- Zone Latent Cooling Design Supply Air Humidity Ratio Input Method
  ,                                       !- Zone Dehumidification Design Supply Air Humidity Ratio {kgWater/kgDryAir}
  0.005,                                  !- Zone Cooling Design Supply Air Humidity Ratio Difference {kgWater/kgDryAir}
  HumidityRatioDifference,                !- Zone Latent Heating Design Supply Air Humidity Ratio Input Method
  ,                                       !- Zone Humidification Design Supply Air Humidity Ratio {kgWater/kgDryAir}
  0.005,                                  !- Zone Humidification Design Supply Air Humidity Ratio Difference {kgWater/kgDryAir}
  ,                                       !- Zone Humidistat Dehumidification Set Point Schedule Name
  ,                                       !- Zone Humidistat Humidification Set Point Schedule Name
  ,                                       !- Design Zone Air Distribution Effectiveness in Cooling Mode
  ,                                       !- Design Zone Air Distribution Effectiveness in Heating Mode
  ,                                       !- Design Zone Secondary Recirculation Fraction {dimensionless}
  ,                                       !- Design Minimum Zone Ventilation Efficiency {dimensionless}
  Coincident;                             !- Sizing Option

OS:ZoneHVAC:EquipmentList,
  {a4451e29-36e8-4825-8030-9f710dee64df}, !- Handle
  Zone HVAC Equipment List 2,             !- Name
  {cbfe1c9c-d457-4373-9e9a-47d9d9fb7574}; !- Thermal Zone

OS:AdditionalProperties,
  {8cdfebcb-1d7b-4554-8e5a-b0d0763203dc}, !- Handle
  {cbfe1c9c-d457-4373-9e9a-47d9d9fb7574}, !- Object Name
  ObjectType,                             !- Feature Name 1
  String,                                 !- Feature Data Type 1
  attic - vented;                         !- Feature Value 1

OS:Space,
  {fdbc29c2-0993-4087-8a6e-988907db8880}, !- Handle
  attic - vented 1,                       !- Name
  ,                                       !- Space Type Name
  ,                                       !- Default Construction Set Name
  ,                                       !- Default Schedule Set Name
  ,                                       !- Direction of Relative North {deg}
  ,                                       !- X Origin {m}
  ,                                       !- Y Origin {m}
  ,                                       !- Z Origin {m}
  ,                                       !- Building Story Name
  {cbfe1c9c-d457-4373-9e9a-47d9d9fb7574}, !- Thermal Zone Name
  ,                                       !- Part of Total Floor Area
  ,                                       !- Design Specification Outdoor Air Object Name
  ,                                       !- Building Unit Name
  356.390921899745;                       !- Volume {m3}

OS:Material,
  {90cc9b3c-e1c2-4111-8449-614d6d938e64}, !- Handle
  asphalt or fiberglass shingles,         !- Name
  Rough,                                  !- Roughness
  0.00635,                                !- Thickness {m}
  0.162714,                               !- Conductivity {W/m-K}
  1121.4,                                 !- Density {kg/m3}
  1465.45,                                !- Specific Heat {J/kg-K}
  0.9,                                    !- Thermal Absorptance
  0.85,                                   !- Solar Absorptance
  0.85;                                   !- Visible Absorptance

OS:Material,
  {36f5399c-860a-437c-b8a4-dc8a5bce4f3b}, !- Handle