
OS:Version,
  {00da3285-d846-4a36-bea1-015f4aa2f7f9}, !- Handle
  3.9.0;                                  !- Version Identifier

OS:SimulationControl,
  {29b8e2c4-b0eb-4d4d-ae81-0ce5e2e243f4}, !- Handle
  ,                                       !- Do Zone Sizing Calculation
  ,                                       !- Do System Sizing Calculation
  ,                                       !- Do Plant Sizing Calculation
  No;                                     !- Run Simulation for Sizing Periods

OS:Timestep,
  {be6dc1ba-428e-4491-b401-b800b7b4e6c4}, !- Handle
  1;                                      !- Number of Timesteps per Hour

OS:ShadowCalculation,
  {9e9cd7cc-a740-4e33-b0ef-d54b6eeac584}, !- Handle
  PolygonClipping,                        !- Shading Calculation Method
  ,                                       !- Shading Calculation Update Frequency Method
  20,                                     !- Shading Calculation Update Frequency
  200,                                    !- Maximum Figures in Shadow Overlap Calculations
  ,                                       !- Polygon Clipping Algorithm
  512,                                    !- Pixel Counting Resolution
  ,                                       !- Sky Diffuse Modeling Algorithm
  No,                                     !- Output External Shading Calculation Results
  No,                                     !- Disable Self-Shading Within Shading Zone Groups
  No;                                     !- Disable Self-Shading From Shading Zone Groups to Other Zones

OS:SurfaceConvectionAlgorithm:Outside,
  {6aa78bc8-a8cd-4dee-9c2d-992329af10cd}, !- Handle
  DOE-2;                                  !- Algorithm

OS:SurfaceConvectionAlgorithm:Inside,
  {3fb7ef06-cae7-4daf-a1d9-6e6b7eb3f2c9}, !- Handle
  TARP;                                   !- Algorithm

OS:ZoneCapacitanceMultiplier:ResearchSpecial,
  {5590a959-b3e1-4b77-988b-832523fb618f}, !- Handle
  7,                                      !- Temperature Capacity Multiplier
  15,                                     !- Humidity Capacity Multiplier
  ;                                       !- Carbon Dioxide Capacity Multiplier

OS:ConvergenceLimits,
  {cf4bc6e3-bd7f-4cf3-9885-27775896c0c7}, !- Handle
  0;                                      !- Minimum System Timestep {minutes}

OS:RunPeriod,
  {3aaa2a62-f98d-42d3-a32e-d83c2087ae1c}, !- Handle
  Run Period 1,                           !- Name
  1,                                      !- Begin Month
  1,                                      !- Begin Day of Month
  12,                                     !- End Month
  31,                                     !- End Day of Month
  ,                                       !- Use Weather File Holidays and Special Days
  ,                                       !- Use Weather File Daylight Saving Period
  ,                                       !- Apply Weekend Holiday Rule
  ,                                       !- Use Weather File Rain Indicators
  ,                                       !- Use Weather File Snow Indicators
  ;                                       !- Number of Times Runperiod to be Repeated

OS:PerformancePrecisionTradeoffs,
  {5503399c-7b19-4344-8923-dd10db6ea581}, !- Handle
  ,                                       !- Use Coil Direct Solutions
  CarrollMRT;                             !- Zone Radiant Exchange Algorithm

OS:WeatherFile,
  {5163854b-fa09-43ac-a548-4090bdb04fff}, !- Handle
  Buffalo Niagara Intl Ap,                !- City
  NY,                                     !- State Province Region
  USA,                                    !- Country
  TMY3,                                   !- Data Source
  725280,                                 !- WMO Number
  42.93,                                  !- Latitude {deg}
  -78.73,                                 !- Longitude {deg}
  -5,                                     !- Time Zone {hr}
  215,                                    !- Elevation {m}
  /Users/nmoore/github/urbanopt-example-geojson-project/example_project/weather/USA_NY_Buffalo-Greater.Buffalo.Intl.AP.725280_TMY3.epw, !- Url
  6B50E0FF,                               !- Checksum
  ,                                       !- Start Date Actual Year
  Sunday;                                 !- Start Day of Week

OS:YearDescription,
  {e2546eac-96c6-4a4a-97b7-f056c71e9c37}, !- Handle
  2007,                                   !- Calendar Year
  ,                                       !- Day of Week for Start Day
  ;                                       !- Is Leap Year

OS:Site,
  {98cd2599-5217-4dd1-ad57-b78304d4e638}, !- Handle
  Buffalo Niagara Intl Ap_NY,             !- Name
  42.93,                                  !- Latitude {deg}
  -78.73,                                 !- Longitude {deg}
  -5,                                     !- Time Zone {hr}
  215,                                    !- Elevation {m}
  Suburbs,                                !- Terrain
  Yes;                                    !- Keep Site Location Information

OS:RunPeriodControl:DaylightSavingTime,
  {797493a5-bb71-4377-8c18-c53c1e8a8ff7}, !- Handle
  Mar 12,                                 !- Start Date
  Nov 5;                                  !- End Date

OS:Site:GroundTemperature:Shallow,
  {ab9cf04c-8a40-4ee5-938a-b383a968a087}, !- Handle
  4.30207395723828,                       !- January Surface Ground Temperature {C}
  2.29327249652502,                       !- February Surface Ground Temperature {C}
  2.13240047156047,                       !- March Surface Ground Temperature {C}
  3.08567940719286,                       !- April Surface Ground Temperature {C}
  6.91256312497526,                       !- May Surface Ground Temperature {C}
  10.7216195949507,                       !- June Surface Ground Temperature {C}
  14.0238679822574,                       !- July Surface Ground Temperature {C}
  16.1157611184724,                       !- August Surface Ground Temperature {C}
  16.2934789303462,                       !- September Surface Ground Temperature {C}
  14.5920754632847,                       !- October Surface Ground Temperature {C}
  11.374036348653,                        !- November Surface Ground Temperature {C}
  7.68182621661674;                       !- December Surface Ground Temperature {C}

OS:ThermalZone,
  {ea40b8ec-2607-410e-9e94-71fbcf935363}, !- Handle
  conditioned space,                      !- Name
  1,                                      !- Multiplier
  ,                                       !- Ceiling Height {m}
  692.06373070848,                        !- Volume {m3}
  ,                                       !- Floor Area {m2}
  ,                                       !- Zone Inside Convection Algorithm
  ,                                       !- Zone Outside Convection Algorithm
  ,                                       !- Zone Conditioning Equipment List Name
  {b7a362b6-2bce-41fe-9c5d-8da4ca42f5e1}, !- Zone Air Inlet Port List
  {c81d9c8f-1fc8-4402-ba90-c5242d92d813}, !- Zone Air Exhaust Port List
  {28efe911-f505-4eef-a0df-46acfad29b17}, !- Zone Air Node Name
  {dd7184e2-7611-4087-aefc-43fa498864b1}, !- Zone Return Air Port List
  ,                                       !- Primary Daylighting Control Name
  ,                                       !- Fraction of Zone Controlled by Primary Daylighting Control
  ,                                       !- Secondary Daylighting Control Name
  ,                                       !- Fraction of Zone Controlled by Secondary Daylighting Control
  ,                                       !- Illuminance Map Name
  ,                                       !- Group Rendering Name
  {29b25c93-2288-4b20-81ca-5a7be740dd3e}, !- Thermostat Name
  No;                                     !- Use Ideal Air Loads

OS:Node,
  {e454f0af-6f48-492f-a99b-a2eb4076f0b4}, !- Handle
  Node 1,                                 !- Name
  {28efe911-f505-4eef-a0df-46acfad29b17}, !- Inlet Port
  ;                                       !- Outlet Port

OS:Connection,
  {28efe911-f505-4eef-a0df-46acfad29b17}, !- Handle
  {ea40b8ec-2607-410e-9e94-71fbcf935363}, !- Source Object
  11,                                     !- Outlet Port
  {e454f0af-6f48-492f-a99b-a2eb4076f0b4}, !- Target Object
  2;                                      !- Inlet Port

OS:PortList,
  {b7a362b6-2bce-41fe-9c5d-8da4ca42f5e1}, !- Handle
  {ea40b8ec-2607-410e-9e94-71fbcf935363}; !- HVAC Component

OS:PortList,
  {c81d9c8f-1fc8-4402-ba90-c5242d92d813}, !- Handle
  {ea40b8ec-2607-410e-9e94-71fbcf935363}; !- HVAC Component

OS:PortList,
  {dd7184e2-7611-4087-aefc-43fa498864b1}, !- Handle
  {ea40b8ec-2607-410e-9e94-71fbcf935363}; !- HVAC Component

OS:Sizing:Zone,
  {d88168a9-56af-4e22-b6fb-a49c09c362c9}, !- Handle
  {ea40b8ec-2607-410e-9e94-71fbcf935363}, !- Zone or ZoneList Name
  SupplyAirTemperature,                   !- Zone Cooling Design Supply Air Temperature Input Method
  14,                                     !- Zone Cooling Design Supply Air Temperature {C}
  11.11,                                  !- Zone Cooling Design Supply Air Temperature Difference {deltaC}
  SupplyAirTemperature,                   !- Zone Heating Design Supply Air Temperature Input Method
  40,                                     !- Zone Heating Design Supply Air Temperature {C}
  11.11,                                  !- Zone Heating Design Supply Air Temperature Difference {deltaC}
  0.0085,                                 !- Zone Cooling Design Supply Air Humidity Ratio {kg-H2O/kg-air}
  0.008,                                  !- Zone Heating Design Supply Air Humidity Ratio {kg-H2O/kg-air}
  ,                                       !- Zone Heating Sizing Factor
  ,                                       !- Zone Cooling Sizing Factor
  DesignDay,                              !- Cooling Design Air Flow Method
  ,                                       !- Cooling Design Air Flow Rate {m3/s}
  ,                                       !- Cooling Minimum Air Flow per Zone Floor Area {m3/s-m2}
  ,                                       !- Cooling Minimum Air Flow {m3/s}
  ,                                       !- Cooling Minimum Air Flow Fraction
  DesignDay,                              !- Heating Design Air Flow Method
  ,                                       !- Heating Design Air Flow Rate {m3/s}
  ,                                       !- Heating Maximum Air Flow per Zone Floor Area {m3/s-m2}
  ,                                       !- Heating Maximum Air Flow {m3/s}
  ,                                       !- Heating Maximum Air Flow Fraction
  No,                                     !- Account for Dedicated Outdoor Air System
  NeutralSupplyAir,                       !- Dedicated Outdoor Air System Control Strategy
  autosize,                               !- Dedicated Outdoor Air Low Setpoint Temperature for Design {C}
  autosize,                               !- Dedicated Outdoor Air High Setpoint Temperature for Design {C}
  Sensible Load Only No Latent Load,      !- Zone Load Sizing Method
  HumidityRatioDifference,                !- Zone Latent Cooling Design Supply Air Humidity Ratio Input Method
  ,                                       !- Zone Dehumidification Design Supply Air Humidity Ratio {kgWater/kgDryAir}
  0.005,                                  !- Zone Cooling Design Supply Air Humidity Ratio Difference {kgWater/kgDryAir}
  HumidityRatioDifference,                !- Zone Latent Heating Design Supply Air Humidity Ratio Input Method
  ,                                       !- Zone Humidification Design Supply Air Humidity Ratio {kgWater/kgDryAir}
  0.005,                                  !- Zone Humidification Design Supply Air Humidity Ratio Difference {kgWater/kgDryAir}
  ,                                       !- Zone Humidistat Dehumidification Set Point Schedule Name
  ,                                       !- Zone Humidistat Humidification Set Point Schedule Name
  ,                                       !- Design Zone Air Distribution Effectiveness in Cooling Mode
  ,                                       !- Design Zone Air Distribution Effectiveness in Heating Mode
  ,                                       !- Design Zone Secondary Recirculation Fraction {dimensionless}
  ,                                       !- Design Minimum Zone Ventilation Efficiency {dimensionless}
  Coincident;                             !- Sizing Option

OS:ZoneHVAC:EquipmentList,
  {a174270f-2b22-4416-816b-7a11130ffec8}, !- Handle
  Zone HVAC Equipment List 1,             !- Name
  {ea40b8ec-2607-410e-9e94-71fbcf935363}, !- Thermal Zone
  ,                                       !- Load Distribution Scheme
  {169d4ada-b136-41fd-b841-0eb07b05eca9}, !- Zone Equipment 1
  1,                                      !- Zone Equipment Cooling Sequence 1
  1,                                      !- Zone Equipment Heating or No-Load Sequence 1
  {8f9c2917-5cd9-41e0-93dc-0527e4fd4480}, !- Zone Equipment Sequential Cooling Fraction Schedule Name 1
  {64a1bc62-615c-4e1a-988b-214e79fb441f}; !- Zone Equipment Sequential Heating Fraction Schedule Name 1

OS:AdditionalProperties,
  {02e5642f-c194-47e5-87b1-5d812d886085}, !- Handle
  {ea40b8ec-2607-410e-9e94-71fbcf935363}, !- Object Name
  ObjectType,                             !- Feature Name 1
  String,                                 !- Feature Data Type 1
  conditioned space;                      !- Feature Value 1

OS:Space,
  {c634f9b2-f109-41de-9ecd-6cc10dbd5112}, !- Handle
  conditioned space 1,                    !- Name
  ,                                       !- Space Type Name
  ,                                       !- Default Construction Set Name
  ,                                       !- Default Schedule Set Name
  ,                                       !- Direction of Relative North {deg}
  ,                                       !- X Origin {m}
  ,                                       !- Y Origin {m}
  ,                                       !- Z Origin {m}
  ,                                       !- Building Story Name
  {ea40b8ec-2607-410e-9e94-71fbcf935363}, !- Thermal Zone Name
  ,                                       !- Part of Total Floor Area
  ,                                       !- Design Specification Outdoor Air Object Name
  ,                                       !- Building Unit Name
  692.06373070848;                        !- Volume {m3}

OS:Schedule:Ruleset,
  {6ce0e269-add1-4379-80c6-017e5b64beea}, !- Handle
  heating setpoint,                       !- Name
  {441d1fb8-76d1-4838-bbb8-bd96d354af89}, !- Schedule Type Limits Name
  {bcbe6b9f-7e85-4418-9379-7656b56892bf}; !- Default Day Schedule Name

OS:Schedule:Day,
  {bcbe6b9f-7e85-4418-9379-7656b56892bf}, !- Handle
  heating setpoint default day,           !- Name
  {441d1fb8-76d1-4838-bbb8-bd96d354af89}, !- Schedule Type Limits Name
  ,                                       !- Interpolate to Timestep
  24,                                     !- Hour 1
  0,                                      !- Minute 1
  0;                                      !- Value Until Time 1

OS:Schedule:Rule,
  {ad46e81d-8018-4028-94ef-2b9d30cf9870}, !- Handle
  heating setpoint allday rule,           !- Name
  {6ce0e269-add1-4379-80c6-017e5b64beea}, !- Schedule Ruleset Name
  0,                                      !- Rule Order
  {0270ffc8-5416-4b54-a34e-a9e38854b8ad}, !- Day Schedule Name
  Yes,                                    !- Apply Sunday
  Yes,                                    !- Apply Monday
  Yes,                                    !- Apply Tuesday
  Yes,                                    !- Apply Wednesday
  Yes,                                    !- Apply Thursday
  Yes,                                    !- Apply Friday
  Yes,                                    !- Apply Saturday
  DateRange,                              !- Date Specification Type
  1,                                      !- Start Month
  1,                                      !- Start Day
  12,                                     !- End Month
  31;                                     !- End Day

OS:Schedule:Day,
  {0270ffc8-5416-4b54-a34e-a9e38854b8ad}, !- Handle
  heating setpoint day,                   !- Name
  {441d1fb8-76d1-4838-bbb8-bd96d354af89}, !- Schedule Type Limits Name
  ,                                       !- Interpolate to Timestep
  24,                                     !- Hour 1
  0,                                      !- Minute 1
  20;                                     !- Value Until Time 1

OS:Schedule:Ruleset,
  {964381a7-c751-4781-89ea-35c33db9e79b}, !- Handle
  cooling setpoint,                       !- Name
  {441d1fb8-76d1-4838-bbb8-bd96d354af89}, !- Schedule Type Limits Name
  {fcd661d4-39bc-4c23-818d-7915d5ddf4ac}; !- Default Day Schedule Name

OS:Schedule:Day,
  {fcd661d4-39bc-4c23-818d-7915d5ddf4ac}, !- Handle
  cooling setpoint default day,           !- Name
  {441d1fb8-76d1-4838-bbb8-bd96d354af89}, !- Schedule Type Limits Name
  ,                                       !- Interpolate to Timestep
  24,                                     !- Hour 1
  0,                                      !- Minute 1
  0;                                      !- Value Until Time 1

OS:Schedule:Rule,
  {86fcbcdd-c4a8-423a-b45f-f8a6ab1ad783}, !- Handle
  cooling setpoint allday rule,           !- Name
  {964381a7-c751-4781-89ea-35c33db9e79b}, !- Schedule Ruleset Name
  0,                                      !- Rule Order
  {7f56843d-ed97-4d42-af6d-49018bec2cf5}, !- Day Schedule Name
  Yes,                                    !- Apply Sunday
  Yes,                                    !- Apply Monday
  Yes,                                    !- Apply Tuesday
  Yes,                                    !- Apply Wednesday
  Yes,                                    !- Apply Thursday
  Yes,                                    !- Apply Friday
  Yes,                                    !- Apply Saturday
  DateRange,                              !- Date Specification Type
  1,                                      !- Start Month
  1,                                      !- Start Day
  12,                                     !- End Month
  31;                                     !- End Day

OS:Schedule:Day,
  {7f56843d-ed97-4d42-af6d-49018bec2cf5}, !- Handle
  cooling setpoint day,                   !- Name
  {441d1fb8-76d1-4838-bbb8-bd96d354af89}, !- Schedule Type Limits Name
  ,                                       !- Interpolate to Timestep
  24,                                     !- Hour 1
  0,                                      !- Minute 1
  25.5555555555556;                       !- Value Until Time 1

OS:ThermostatSetpoint:DualSetpoint,
  {29b25c93-2288-4b20-81ca-5a7be740dd3e}, !- Handle
  conditioned space temperature setpoint, !- Name
  {6ce0e269-add1-4379-80c6-017e5b64beea}, !- Heating Setpoint Temperature Schedule Name
  {964381a7-c751-4781-89ea-35c33db9e79b}, !- Cooling Setpoint Temperature Schedule Name
  0;                                      !- Temperature Difference Between Cutout And Setpoint {deltaC}

OS:ScheduleTypeLimits,
  {441d1fb8-76d1-4838-bbb8-bd96d354af89}, !- Handle
  Temperature,                            !- Name
  ,                                       !- Lower Limit Value
  ,                                       !- Upper Limit Value
  Continuous,                             !- Numeric Type
  Temperature;                            !- Unit Type

OS:Surface,
  {27d24167-9c56-45f6-9e1a-1688bda7bf47}, !- Handle
  Roof1,                                  !- Name
  RoofCeiling,                            !- Surface Type
  {a20f3821-ca02-45cc-91b1-347856c8ebef}, !- Construction Name
  {c4e85530-b71b-4341-a988-297c30b93402}, !- Space Name
  Outdoors,                               !- Outside Boundary Condition
  ,                                       !- Outside Boundary Condition Object
  SunExposed,                             !- Sun Exposure
  WindExposed,                            !- Wind Exposure
  ,                                       !- View Factor to Ground
  ,                                       !- Number of Vertices
  -26.9347048849634, 58.0557891618865, 2.4384, !- X,Y,Z Vertex 1 {m}
  -26.9347048849634, 46.7895631136661, 8.0715130241102, !- X,Y,Z Vertex 2 {m}
  -14.3386812381136, 46.7895631136661, 8.0715130241102, !- X,Y,Z Vertex 3 {m}
  -14.3386812381136, 58.0557891618865, 2.4384; !- X,Y,Z Vertex 4 {m}

OS:AdditionalProperties,
  {14035ae6-1799-4a0b-9dbc-db5e627ee202}, !- Handle
  {27d24167-9c56-45f6-9e1a-1688bda7bf47}, !- Object Name
  Length,                                 !- Feature Name 1
  Double,                                 !- Feature Data Type 1
  41.325536899113608,                     !- Feature Value 1
  Width,                                  !- Feature Name 2
  Double,                                 !- Feature Data Type 2
  41.325536899113601,                     !- Feature Value 2
  Azimuth,                                !- Feature Name 3
  Integer,                                !- Feature Data Type 3
  0,                                      !- Feature Value 3
  Tilt,                                   !- Feature Name 4
  Double,                                 !- Feature Data Type 4
  0.5,                                    !- Feature Value 4
  SurfaceType,                            !- Feature Name 5
  String,                                 !- Feature Data Type 5
  Roof;                                   !- Feature Value 5

OS:ThermalZone,
  {6f7bd61a-bd47-4e72-bd85-c74e25ac384f}, !- Handle
  attic - vented,                         !- Name
  1,                                      !- Multiplier
  ,                                       !- Ceiling Height {m}
  356.389957095237,                       !- Volume {m3}
  ,                                       !- Floor Area {m2}
  ,                                       !- Zone Inside Convection Algorithm
  ,                                       !- Zone Outside Convection Algorithm
  ,                                       !- Zone Conditioning Equipment List Name
  {2fa7c546-5650-4ca1-86f4-ef110533b46c}, !- Zone Air Inlet Port List
  {4fda6f12-3544-42ed-aaa8-ed6885b477b1}, !- Zone Air Exhaust Port List
  {e6631a04-a7a6-4e51-893a-c634566dd5be}, !- Zone Air Node Name
  {473495d0-f6f2-471e-93a9-02a09ea7457f}, !- Zone Return Air Port List
  ,                                       !- Primary Daylighting Control Name
  ,                                       !- Fraction of Zone Controlled by Primary Daylighting Control
  ,                                       !- Secondary Daylighting Control Name
  ,                                       !- Fraction of Zone Controlled by Secondary Daylighting Control
  ,                                       !- Illuminance Map Name
  ,                                       !- Group Rendering Name
  ,                                       !- Thermostat Name
  No;                                     !- Use Ideal Air Loads

OS:Node,
  {960d5e69-b041-4489-acd3-fcd81dc75092}, !- Handle
  Node 2,                                 !- Name
  {e6631a04-a7a6-4e51-893a-c634566dd5be}, !- Inlet Port
  ;                                       !- Outlet Port

OS:Connection,
  {e6631a04-a7a6-4e51-893a-c634566dd5be}, !- Handle
  {6f7bd61a-bd47-4e72-bd85-c74e25ac384f}, !- Source Object
  11,                                     !- Outlet Port
  {960d5e69-b041-4489-acd3-fcd81dc75092}, !- Target Object
  2;                                      !- Inlet Port

OS:PortList,
  {2fa7c546-5650-4ca1-86f4-ef110533b46c}, !- Handle
  {6f7bd61a-bd47-4e72-bd85-c74e25ac384f}; !- HVAC Component

OS:PortList,
  {4fda6f12-3544-42ed-aaa8-ed6885b477b1}, !- Handle
  {6f7bd61a-bd47-4e72-bd85-c74e25ac384f}; !- HVAC Component

OS:PortList,
  {473495d0-f6f2-471e-93a9-02a09ea7457f}, !- Handle
  {6f7bd61a-bd47-4e72-bd85-c74e25ac384f}; !- HVAC Component

OS:Sizing:Zone,
  {0dcedd78-904a-4773-a311-d48fd6c71972}, !- Handle
  {6f7bd61a-bd47-4e72-bd85-c74e25ac384f}, !- Zone or ZoneList Name
  SupplyAirTemperature,                   !- Zone Cooling Design Supply Air Temperature Input Method
  14,                                     !- Zone Cooling Design Supply Air Temperature {C}
  11.11,                                  !- Zone Cooling Design Supply Air Temperature Difference {deltaC}
  SupplyAirTemperature,                   !- Zone Heating Design Supply Air Temperature Input Method
  40,                                     !- Zone Heating Design Supply Air Temperature {C}
  11.11,                                  !- Zone Heating Design Supply Air Temperature Difference {deltaC}
  0.0085,                                 !- Zone Cooling Design Supply Air Humidity Ratio {kg-H2O/kg-air}
  0.008,                                  !- Zone Heating Design Supply Air Humidity Ratio {kg-H2O/kg-air}
  ,                                       !- Zone Heating Sizing Factor
  ,                                       !- Zone Cooling Sizing Factor
  DesignDay,                              !- Cooling Design Air Flow Method
  ,                                       !- Cooling Design Air Flow Rate {m3/s}
  ,                                       !- Cooling Minimum Air Flow per Zone Floor Area {m3/s-m2}
  ,                                       !- Cooling Minimum Air Flow {m3/s}
  ,                                       !- Cooling Minimum Air Flow Fraction
  DesignDay,                              !- Heating Design Air Flow Method
  ,                                       !- Heating Design Air Flow Rate {m3/s}
  ,                                       !- Heating Maximum Air Flow per Zone Floor Area {m3/s-m2}
  ,                                       !- Heating Maximum Air Flow {m3/s}
  ,                                       !- Heating Maximum Air Flow Fraction
  No,                                     !- Account for Dedicated Outdoor Air System
  NeutralSupplyAir,                       !- Dedicated Outdoor Air System Control Strategy
  autosize,                               !- Dedicated Outdoor Air Low Setpoint Temperature for Design {C}
  autosize,                               !- Dedicated Outdoor Air High Setpoint Temperature for Design {C}
  Sensible Load Only No Latent Load,      !- Zone Load Sizing Method
  HumidityRatioDifference,                !- Zone Latent Cooling Design Supply Air Humidity Ratio Input Method
  ,                                       !- Zone Dehumidification Design Supply Air Humidity Ratio {kgWater/kgDryAir}
  0.005,                                  !- Zone Cooling Design Supply Air Humidity Ratio Difference {kgWater/kgDryAir}
  HumidityRatioDifference,                !- Zone Latent Heating Design Supply Air Humidity Ratio Input Method
  ,                                       !- Zone Humidification Design Supply Air Humidity Ratio {kgWater/kgDryAir}
  0.005,                                  !- Zone Humidification Design Supply Air Humidity Ratio Difference {kgWater/kgDryAir}
  ,                                       !- Zone Humidistat Dehumidification Set Point Schedule Name
  ,                                       !- Zone Humidistat Humidification Set Point Schedule Name
  ,                                       !- Design Zone Air Distribution Effectiveness in Cooling Mode
  ,                                       !- Design Zone Air Distribution Effectiveness in Heating Mode
  ,                                       !- Design Zone Secondary Recirculation Fraction {dimensionless}
  ,                                       !- Design Minimum Zone Ventilation Efficiency {dimensionless}
  Coincident;                             !- Sizing Option

OS:ZoneHVAC:EquipmentList,
  {a0101866-fdb4-4f70-9d5a-5debd82e73cb}, !- Handle
  Zone HVAC Equipment List 2,             !- Name
  {6f7bd61a-bd47-4e72-bd85-c74e25ac384f}; !- Thermal Zone

OS:AdditionalProperties,
  {595d27a9-9b53-4e83-b62b-5629cfde6ace}, !- Handle
  {6f7bd61a-bd47-4e72-bd85-c74e25ac384f}, !- Object Name
  ObjectType,                             !- Feature Name 1
  String,                                 !- Feature Data Type 1
  attic - vented;                         !- Feature Value 1

OS:Space,
  {c4e85530-b71b-4341-a988-297c30b93402}, !- Handle
  attic - vented 1,                       !- Name
  ,                                       !- Space Type Name
  ,                                       !- Default Construction Set Name
  ,                                       !- Default Schedule Set Name
  ,                                       !- Direction of Relative North {deg}
  ,                                       !- X Origin {m}
  ,                                       !- Y Origin {m}
  ,                                       !- Z Origin {m}
  ,                                       !- Building Story Name
  {6f7bd61a-bd47-4e72-bd85-c74e25ac384f}, !- Thermal Zone Name
  ,                                       !- Part of Total Floor Area
  ,                                       !- Design Specification Outdoor Air Object Name
  ,                                       !- Building Unit Name
  356.389957095237;                       !- Volume {m3}

OS:Material,
  {b868ff16-6241-4811-9471-9321a44bd60b}, !- Handle
  asphalt or fiberglass shingles,         !- Name
  Rough,                                  !- Roughness
  0.00635,                                !- Thickness {m}
  0.162714,                               !- Conductivity {W/m-K}
  1121.4,                                 !- Density {kg/m3}
  1465.45,                                !- Specific Heat {J/kg-K}
  0.9,                                    !- Thermal Absorptance
  0.85,                                   !- Solar Absorptance
  0.85;                                   !- Visible Absorptance

OS:Material,
  {0e3b7559-e670-4f2d-919d-0f040f6e4f51}, !- Handle