
OS:Version,
  {2f5a589a-9439-457d-95e0-a362ca0e90e0}, !- Handle
  3.9.0;                                  !- Version Identifier

OS:SimulationControl,
  {7a07d065-bb1b-4da9-89b9-34fda3c4832d}, !- Handle
  ,                                       !- Do Zone Sizing Calculation
  ,                                       !- Do System Sizing Calculation
  ,                                       !- Do Plant Sizing Calculation
  No;                                     !- Run Simulation for Sizing Periods

OS:Timestep,
  {562fc010-7010-49a6-a7b8-6578645fefcf}, !- Handle
  1;                                      !- Number of Timesteps per Hour

OS:ShadowCalculation,
  {bceeda6e-5878-46c4-864a-c73bab301256}, !- Handle
  PolygonClipping,                        !- Shading Calculation Method
  ,                                       !- Shading Calculation Update Frequency Method
  20,                                     !- Shading Calculation Update Frequency
  200,                                    !- Maximum Figures in Shadow Overlap Calculations
  ,                                       !- Polygon Clipping Algorithm
  512,                                    !- Pixel Counting Resolution
  ,                                       !- Sky Diffuse Modeling Algorithm
  No,                                     !- Output External Shading Calculation Results
  No,                                     !- Disable Self-Shading Within Shading Zone Groups
  No;                                     !- Disable Self-Shading From Shading Zone Groups to Other Zones

OS:SurfaceConvectionAlgorithm:Outside,
  {d46d8205-7874-4309-88d1-cdda3f8870dd}, !- Handle
  DOE-2;                                  !- Algorithm

OS:SurfaceConvectionAlgorithm:Inside,
  {57e9d056-5152-4b1c-86d0-6823b5425e05}, !- Handle
  TARP;                                   !- Algorithm

OS:ZoneCapacitanceMultiplier:ResearchSpecial,
  {1ff7f0cf-176b-4b3e-97db-5906048c513d}, !- Handle
  7,                                      !- Temperature Capacity Multiplier
  15,                                     !- Humidity Capacity Multiplier
  ;                                       !- Carbon Dioxide Capacity Multiplier

OS:ConvergenceLimits,
  {cbab810b-6daf-4db3-aa28-21c3d6293301}, !- Handle
  0;                                      !- Minimum System Timestep {minutes}

OS:RunPeriod,
  {e80ca8b1-893a-4a44-afcb-fbe1364c6f10}, !- Handle
  Run Period 1,                           !- Name
  1,                                      !- Begin Month
  1,                                      !- Begin Day of Month
  12,                                     !- End Month
  31,                                     !- End Day of Month
  ,                                       !- Use Weather File Holidays and Special Days
  ,                                       !- Use Weather File Daylight Saving Period
  ,                                       !- Apply Weekend Holiday Rule
  ,                                       !- Use Weather File Rain Indicators
  ,                                       !- Use Weather File Snow Indicators
  ;                                       !- Number of Times Runperiod to be Repeated

OS:PerformancePrecisionTradeoffs,
  {b791d6a6-6c35-4f7b-b234-e85351cecb36}, !- Handle
  ,                                       !- Use Coil Direct Solutions
  CarrollMRT;                             !- Zone Radiant Exchange Algorithm

OS:WeatherFile,
  {80528604-6b85-4cad-882d-968dc7d81f91}, !- Handle
  Buffalo Niagara Intl Ap,                !- City
  NY,                                     !- State Province Region
  USA,                                    !- Country
  TMY3,                                   !- Data Source
  725280,                                 !- WMO Number
  42.93,                                  !- Latitude {deg}
  -78.73,                                 !- Longitude {deg}
  -5,                                     !- Time Zone {hr}
  215,                                    !- Elevation {m}
  /Users/nmoore/github/urbanopt-example-geojson-project/example_project/weather/USA_NY_Buffalo-Greater.Buffalo.Intl.AP.725280_TMY3.epw, !- Url
  6B50E0FF,                               !- Checksum
  ,                                       !- Start Date Actual Year
  Sunday;                                 !- Start Day of Week

OS:YearDescription,
  {5ea66c60-5443-4b51-9980-8312a09a3765}, !- Handle
  2007,                                   !- Calendar Year
  ,                                       !- Day of Week for Start Day
  ;                                       !- Is Leap Year

OS:Site,
  {d7405e74-12ec-4f63-be29-43135c482d66}, !- Handle
  Buffalo Niagara Intl Ap_NY,             !- Name
  42.93,                                  !- Latitude {deg}
  -78.73,                                 !- Longitude {deg}
  -5,                                     !- Time Zone {hr}
  215,                                    !- Elevation {m}
  Suburbs,                                !- Terrain
  Yes;                                    !- Keep Site Location Information

OS:RunPeriodControl:DaylightSavingTime,
  {fc5f1cac-9e35-4f65-8941-3a728adeefae}, !- Handle
  Mar 12,                                 !- Start Date
  Nov 5;                                  !- End Date

OS:Site:GroundTemperature:Shallow,
  {72acc11e-b880-462b-889d-650575eeeb53}, !- Handle
  4.30207395723828,                       !- January Surface Ground Temperature {C}
  2.29327249652502,                       !- February Surface Ground Temperature {C}
  2.13240047156047,                       !- March Surface Ground Temperature {C}
  3.08567940719286,                       !- April Surface Ground Temperature {C}
  6.91256312497526,                       !- May Surface Ground Temperature {C}
  10.7216195949507,                       !- June Surface Ground Temperature {C}
  14.0238679822574,                       !- July Surface Ground Temperature {C}
  16.1157611184724,                       !- August Surface Ground Temperature {C}
  16.2934789303462,                       !- September Surface Ground Temperature {C}
  14.5920754632847,                       !- October Surface Ground Temperature {C}
  11.374036348653,                        !- November Surface Ground Temperature {C}
  7.68182621661674;                       !- December Surface Ground Temperature {C}

OS:ThermalZone,
  {0f0393c2-0c80-485f-a742-9920025e47ab}, !- Handle
  conditioned space,                      !- Name
  1,                                      !- Multiplier
  ,                                       !- Ceiling Height {m}
  692.06373070848,                        !- Volume {m3}
  ,                                       !- Floor Area {m2}
  ,                                       !- Zone Inside Convection Algorithm
  ,                                       !- Zone Outside Convection Algorithm
  ,                                       !- Zone Conditioning Equipment List Name
  {1b034313-816d-4cd7-bb2b-9ec4ffeef9c8}, !- Zone Air Inlet Port List
  {80349a45-d864-45b3-9faf-402d07d88356}, !- Zone Air Exhaust Port List
  {aa6e4ea9-1519-4cd2-8e40-0ffe4277d36d}, !- Zone Air Node Name
  {2376394c-18aa-4768-af01-140ac0ff2736}, !- Zone Return Air Port List
  ,                                       !- Primary Daylighting Control Name
  ,                                       !- Fraction of Zone Controlled by Primary Daylighting Control
  ,                                       !- Secondary Daylighting Control Name
  ,                                       !- Fraction of Zone Controlled by Secondary Daylighting Control
  ,                                       !- Illuminance Map Name
  ,                                       !- Group Rendering Name
  {506835f8-d0c1-46e5-9a11-51d6aa7f0f64}, !- Thermostat Name
  No;                                     !- Use Ideal Air Loads

OS:Node,
  {ab77be1c-c782-4a99-858f-bca13843ae4f}, !- Handle
  Node 1,                                 !- Name
  {aa6e4ea9-1519-4cd2-8e40-0ffe4277d36d}, !- Inlet Port
  ;                                       !- Outlet Port

OS:Connection,
  {aa6e4ea9-1519-4cd2-8e40-0ffe4277d36d}, !- Handle
  {0f0393c2-0c80-485f-a742-9920025e47ab}, !- Source Object
  11,                                     !- Outlet Port
  {ab77be1c-c782-4a99-858f-bca13843ae4f}, !- Target Object
  2;                                      !- Inlet Port

OS:PortList,
  {1b034313-816d-4cd7-bb2b-9ec4ffeef9c8}, !- Handle
  {0f0393c2-0c80-485f-a742-9920025e47ab}, !- HVAC Component
  {d0c7bb7c-f319-4d2b-a44f-f16993ef9767}; !- Port 1

OS:PortList,
  {80349a45-d864-45b3-9faf-402d07d88356}, !- Handle
  {0f0393c2-0c80-485f-a742-9920025e47ab}; !- HVAC Component

OS:PortList,
  {2376394c-18aa-4768-af01-140ac0ff2736}, !- Handle
  {0f0393c2-0c80-485f-a742-9920025e47ab}, !- HVAC Component
  {18ce2a53-9b92-4e6c-9a9a-2b5a7eb0faa8}; !- Port 1

OS:Sizing:Zone,
  {bb70a1d9-5d2a-4019-a0c3-2f5df0169862}, !- Handle
  {0f0393c2-0c80-485f-a742-9920025e47ab}, !- Zone or ZoneList Name
  SupplyAirTemperature,                   !- Zone Cooling Design Supply Air Temperature Input Method
  14,                                     !- Zone Cooling Design Supply Air Temperature {C}
  11.11,                                  !- Zone Cooling Design Supply Air Temperature Difference {deltaC}
  SupplyAirTemperature,                   !- Zone Heating Design Supply Air Temperature Input Method
  40,                                     !- Zone Heating Design Supply Air Temperature {C}
  11.11,                                  !- Zone Heating Design Supply Air Temperature Difference {deltaC}
  0.0085,                                 !- Zone Cooling Design Supply Air Humidity Ratio {kg-H2O/kg-air}
  0.008,                                  !- Zone Heating Design Supply Air Humidity Ratio {kg-H2O/kg-air}
  ,                                       !- Zone Heating Sizing Factor
  ,                                       !- Zone Cooling Sizing Factor
  DesignDay,                              !- Cooling Design Air Flow Method
  ,                                       !- Cooling Design Air Flow Rate {m3/s}
  ,                                       !- Cooling Minimum Air Flow per Zone Floor Area {m3/s-m2}
  ,                                       !- Cooling Minimum Air Flow {m3/s}
  ,                                       !- Cooling Minimum Air Flow Fraction
  DesignDay,                              !- Heating Design Air Flow Method
  ,                                       !- Heating Design Air Flow Rate {m3/s}
  ,                                       !- Heating Maximum Air Flow per Zone Floor Area {m3/s-m2}
  ,                                       !- Heating Maximum Air Flow {m3/s}
  ,                                       !- Heating Maximum Air Flow Fraction
  No,                                     !- Account for Dedicated Outdoor Air System
  NeutralSupplyAir,                       !- Dedicated Outdoor Air System Control Strategy
  autosize,                               !- Dedicated Outdoor Air Low Setpoint Temperature for Design {C}
  autosize,                               !- Dedicated Outdoor Air High Setpoint Temperature for Design {C}
  Sensible Load Only No Latent Load,      !- Zone Load Sizing Method
  HumidityRatioDifference,                !- Zone Latent Cooling Design Supply Air Humidity Ratio Input Method
  ,                                       !- Zone Dehumidification Design Supply Air Humidity Ratio {kgWater/kgDryAir}
  0.005,                                  !- Zone Cooling Design Supply Air Humidity Ratio Difference {kgWater/kgDryAir}
  HumidityRatioDifference,                !- Zone Latent Heating Design Supply Air Humidity Ratio Input Method
  ,                                       !- Zone Humidification Design Supply Air Humidity Ratio {kgWater/kgDryAir}
  0.005,                                  !- Zone Humidification Design Supply Air Humidity Ratio Difference {kgWater/kgDryAir}
  ,                                       !- Zone Humidistat Dehumidification Set Point Schedule Name
  ,                                       !- Zone Humidistat Humidification Set Point Schedule Name
  ,                                       !- Design Zone Air Distribution Effectiveness in Cooling Mode
  ,                                       !- Design Zone Air Distribution Effectiveness in Heating Mode
  ,                                       !- Design Zone Secondary Recirculation Fraction {dimensionless}
  ,                                       !- Design Minimum Zone Ventilation Efficiency {dimensionless}
  Coincident;                             !- Sizing Option

OS:ZoneHVAC:EquipmentList,
  {0abf8919-823e-4111-b213-5399710dc005}, !- Handle
  Zone HVAC Equipment List 1,             !- Name
  {0f0393c2-0c80-485f-a742-9920025e47ab}, !- Thermal Zone
  ,                                       !- Load Distribution Scheme
  {3094cba8-a33a-4165-9470-05e7c51513b0}, !- Zone Equipment 1
  1,                                      !- Zone Equipment Cooling Sequence 1
  1,                                      !- Zone Equipment Heating or No-Load Sequence 1
  {4e792c56-7176-4134-8e63-603e65069cc5}, !- Zone Equipment Sequential Cooling Fraction Schedule Name 1
  {0b131337-0dab-40aa-a4cb-de73c74a409d}; !- Zone Equipment Sequential Heating Fraction Schedule Name 1

OS:AdditionalProperties,
  {febbb66d-de43-4d5a-8bfb-d76d735d9c75}, !- Handle
  {0f0393c2-0c80-485f-a742-9920025e47ab}, !- Object Name
  ObjectType,                             !- Feature Name 1
  String,                                 !- Feature Data Type 1
  conditioned space;                      !- Feature Value 1

OS:Space,
  {3355107a-ddec-4f92-93f3-bcd52bf45bc7}, !- Handle
  conditioned space 1,                    !- Name
  ,                                       !- Space Type Name
  ,                                       !- Default Construction Set Name
  ,                                       !- Default Schedule Set Name
  ,                                       !- Direction of Relative North {deg}
  ,                                       !- X Origin {m}
  ,                                       !- Y Origin {m}
  ,                                       !- Z Origin {m}
  ,                                       !- Building Story Name
  {0f0393c2-0c80-485f-a742-9920025e47ab}, !- Thermal Zone Name
  ,                                       !- Part of Total Floor Area
  ,                                       !- Design Specification Outdoor Air Object Name
  ,                                       !- Building Unit Name
  692.06373070848;                        !- Volume {m3}

OS:Schedule:Ruleset,
  {1d34ef15-fbfc-4b28-b334-7320bf8e3d49}, !- Handle
  heating setpoint,                       !- Name
  {58a445eb-eea7-46f2-81a2-6aaebf7ff3d2}, !- Schedule Type Limits Name
  {eccf39bc-aec7-43dc-9b92-2e1beb987a32}; !- Default Day Schedule Name

OS:Schedule:Day,
  {eccf39bc-aec7-43dc-9b92-2e1beb987a32}, !- Handle
  heating setpoint default day,           !- Name
  {58a445eb-eea7-46f2-81a2-6aaebf7ff3d2}, !- Schedule Type Limits Name
  ,                                       !- Interpolate to Timestep
  24,                                     !- Hour 1
  0,                                      !- Minute 1
  0;                                      !- Value Until Time 1

OS:Schedule:Rule,
  {9d1f9aba-33e3-41aa-8f1e-ea305616bf2a}, !- Handle
  heating setpoint allday rule,           !- Name
  {1d34ef15-fbfc-4b28-b334-7320bf8e3d49}, !- Schedule Ruleset Name
  0,                                      !- Rule Order
  {db67b37a-88fd-4a0d-ae26-f8e99558a7ae}, !- Day Schedule Name
  Yes,                                    !- Apply Sunday
  Yes,                                    !- Apply Monday
  Yes,                                    !- Apply Tuesday
  Yes,                                    !- Apply Wednesday
  Yes,                                    !- Apply Thursday
  Yes,                                    !- Apply Friday
  Yes,                                    !- Apply Saturday
  DateRange,                              !- Date Specification Type
  1,                                      !- Start Month
  1,                                      !- Start Day
  12,                                     !- End Month
  31;                                     !- End Day

OS:Schedule:Day,
  {db67b37a-88fd-4a0d-ae26-f8e99558a7ae}, !- Handle
  heating setpoint day,                   !- Name
  {58a445eb-eea7-46f2-81a2-6aaebf7ff3d2}, !- Schedule Type Limits Name
  ,                                       !- Interpolate to Timestep
  24,                                     !- Hour 1
  0,                                      !- Minute 1
  20;                                     !- Value Until Time 1

OS:Schedule:Ruleset,
  {24e880c1-1309-4e41-be91-f4d251158e57}, !- Handle
  cooling setpoint,                       !- Name
  {58a445eb-eea7-46f2-81a2-6aaebf7ff3d2}, !- Schedule Type Limits Name
  {2982de5a-0a36-4921-8b51-7384d22c9674}; !- Default Day Schedule Name

OS:Schedule:Day,
  {2982de5a-0a36-4921-8b51-7384d22c9674}, !- Handle
  cooling setpoint default day,           !- Name
  {58a445eb-eea7-46f2-81a2-6aaebf7ff3d2}, !- Schedule Type Limits Name
  ,                                       !- Interpolate to Timestep
  24,                                     !- Hour 1
  0,                                      !- Minute 1
  0;                                      !- Value Until Time 1

OS:Schedule:Rule,
  {19739f1b-d971-46a5-992b-33b1d44b5f1c}, !- Handle
  cooling setpoint allday rule,           !- Name
  {24e880c1-1309-4e41-be91-f4d251158e57}, !- Schedule Ruleset Name
  0,                                      !- Rule Order
  {e83e3d82-c8e6-4770-b205-43267c576405}, !- Day Schedule Name
  Yes,                                    !- Apply Sunday
  Yes,                                    !- Apply Monday
  Yes,                                    !- Apply Tuesday
  Yes,                                    !- Apply Wednesday
  Yes,                                    !- Apply Thursday
  Yes,                                    !- Apply Friday
  Yes,                                    !- Apply Saturday
  DateRange,                              !- Date Specification Type
  1,                                      !- Start Month
  1,                                      !- Start Day
  12,                                     !- End Month
  31;                                     !- End Day

OS:Schedule:Day,
  {e83e3d82-c8e6-4770-b205-43267c576405}, !- Handle
  cooling setpoint day,                   !- Name
  {58a445eb-eea7-46f2-81a2-6aaebf7ff3d2}, !- Schedule Type Limits Name
  ,                                       !- Interpolate to Timestep
  24,                                     !- Hour 1
  0,                                      !- Minute 1
  25.5555555555556;                       !- Value Until Time 1

OS:ThermostatSetpoint:DualSetpoint,
  {506835f8-d0c1-46e5-9a11-51d6aa7f0f64}, !- Handle
  conditioned space temperature setpoint, !- Name
  {1d34ef15-fbfc-4b28-b334-7320bf8e3d49}, !- Heating Setpoint Temperature Schedule Name
  {24e880c1-1309-4e41-be91-f4d251158e57}, !- Cooling Setpoint Temperature Schedule Name
  0;                                      !- Temperature Difference Between Cutout And Setpoint {deltaC}

OS:ScheduleTypeLimits,
  {58a445eb-eea7-46f2-81a2-6aaebf7ff3d2}, !- Handle
  Temperature,                            !- Name
  ,                                       !- Lower Limit Value
  ,                                       !- Upper Limit Value
  Continuous,                             !- Numeric Type
  Temperature;                            !- Unit Type

OS:Surface,
  {4d58e21b-9fd0-44b6-b0ca-3221ab5b8298}, !- Handle
  Roof1,                                  !- Name
  RoofCeiling,                            !- Surface Type
  {2d7ef926-7e36-45fe-a88a-593ed5b7afc9}, !- Construction Name
  {04f71258-b811-41c2-b73a-a88a5a3e7eef}, !- Space Name
  Outdoors,                               !- Outside Boundary Condition
  ,                                       !- Outside Boundary Condition Object
  SunExposed,                             !- Sun Exposure
  WindExposed,                            !- Wind Exposure
  ,                                       !- View Factor to Ground
  ,                                       !- Number of Vertices
  -26.9347048849634, 58.0557891618865, 2.4384, !- X,Y,Z Vertex 1 {m}
  -26.9347048849634, 46.7895631136661, 8.0715130241102, !- X,Y,Z Vertex 2 {m}
  -14.3386812381136, 46.7895631136661, 8.0715130241102, !- X,Y,Z Vertex 3 {m}
  -14.3386812381136, 58.0557891618865, 2.4384; !- X,Y,Z Vertex 4 {m}

OS:AdditionalProperties,
  {cdd4ed82-971b-4a9a-a27f-41f48e7fd4d9}, !- Handle
  {4d58e21b-9fd0-44b6-b0ca-3221ab5b8298}, !- Object Name
  Length,                                 !- Feature Name 1
  Double,                                 !- Feature Data Type 1
  41.325536899113608,                     !- Feature Value 1
  Width,                                  !- Feature Name 2
  Double,                                 !- Feature Data Type 2
  41.325536899113601,                     !- Feature Value 2
  Azimuth,                                !- Feature Name 3
  Integer,                                !- Feature Data Type 3
  0,                                      !- Feature Value 3
  Tilt,                                   !- Feature Name 4
  Double,                                 !- Feature Data Type 4
  0.5,                                    !- Feature Value 4
  SurfaceType,                            !- Feature Name 5
  String,                                 !- Feature Data Type 5
  Roof;                                   !- Feature Value 5

OS:ThermalZone,
  {21a859fc-f53a-4ff3-8b07-cc4f117ed4c9}, !- Handle
  attic - vented,                         !- Name
  1,                                      !- Multiplier
  ,                                       !- Ceiling Height {m}
  356.389957095237,                       !- Volume {m3}
  ,                                       !- Floor Area {m2}
  ,                                       !- Zone Inside Convection Algorithm
  ,                                       !- Zone Outside Convection Algorithm
  ,                                       !- Zone Conditioning Equipment List Name
  {331c0a9f-79d2-4f28-bbd0-0989db400ac4}, !- Zone Air Inlet Port List
  {cd94e139-7c63-4dd7-b542-72c5a9e83128}, !- Zone Air Exhaust Port List
  {51abf747-a8ab-4b17-9489-86ef1fd3468a}, !- Zone Air Node Name
  {12d9a9f4-03b3-4720-8d52-5118af4ed582}, !- Zone Return Air Port List
  ,                                       !- Primary Daylighting Control Name
  ,                                       !- Fraction of Zone Controlled by Primary Daylighting Control
  ,                                       !- Secondary Daylighting Control Name
  ,                                       !- Fraction of Zone Controlled by Secondary Daylighting Control
  ,                                       !- Illuminance Map Name
  ,                                       !- Group Rendering Name
  ,                                       !- Thermostat Name
  No;                                     !- Use Ideal Air Loads

OS:Node,
  {930c721c-0db2-4b8f-a751-28590c8d1819}, !- Handle
  Node 2,                                 !- Name
  {51abf747-a8ab-4b17-9489-86ef1fd3468a}, !- Inlet Port
  ;                                       !- Outlet Port

OS:Connection,
  {51abf747-a8ab-4b17-9489-86ef1fd3468a}, !- Handle
  {21a859fc-f53a-4ff3-8b07-cc4f117ed4c9}, !- Source Object
  11,                                     !- Outlet Port
  {930c721c-0db2-4b8f-a751-28590c8d1819}, !- Target Object
  2;                                      !- Inlet Port

OS:PortList,
  {331c0a9f-79d2-4f28-bbd0-0989db400ac4}, !- Handle
  {21a859fc-f53a-4ff3-8b07-cc4f117ed4c9}; !- HVAC Component

OS:PortList,
  {cd94e139-7c63-4dd7-b542-72c5a9e83128}, !- Handle
  {21a859fc-f53a-4ff3-8b07-cc4f117ed4c9}; !- HVAC Component

OS:PortList,
  {12d9a9f4-03b3-4720-8d52-5118af4ed582}, !- Handle
  {21a859fc-f53a-4ff3-8b07-cc4f117ed4c9}; !- HVAC Component

OS:Sizing:Zone,
  {c890fc45-df8a-4565-a69a-ab8300886024}, !- Handle
  {21a859fc-f53a-4ff3-8b07-cc4f117ed4c9}, !- Zone or ZoneList Name
  SupplyAirTemperature,                   !- Zone Cooling Design Supply Air Temperature Input Method
  14,                                     !- Zone Cooling Design Supply Air Temperature {C}
  11.11,                                  !- Zone Cooling Design Supply Air Temperature Difference {deltaC}
  SupplyAirTemperature,                   !- Zone Heating Design Supply Air Temperature Input Method
  40,                                     !- Zone Heating Design Supply Air Temperature {C}
  11.11,                                  !- Zone Heating Design Supply Air Temperature Difference {deltaC}
  0.0085,                                 !- Zone Cooling Design Supply Air Humidity Ratio {kg-H2O/kg-air}
  0.008,                                  !- Zone Heating Design Supply Air Humidity Ratio {kg-H2O/kg-air}
  ,                                       !- Zone Heating Sizing Factor
  ,                                       !- Zone Cooling Sizing Factor
  DesignDay,                              !- Cooling Design Air Flow Method
  ,                                       !- Cooling Design Air Flow Rate {m3/s}
  ,                                       !- Cooling Minimum Air Flow per Zone Floor Area {m3/s-m2}
  ,                                       !- Cooling Minimum Air Flow {m3/s}
  ,                                       !- Cooling Minimum Air Flow Fraction
  DesignDay,                              !- Heating Design Air Flow Method
  ,                                       !- Heating Design Air Flow Rate {m3/s}
  ,                                       !- Heating Maximum Air Flow per Zone Floor Area {m3/s-m2}
  ,                                       !- Heating Maximum Air Flow {m3/s}
  ,                                       !- Heating Maximum Air Flow Fraction
  No,                                     !- Account for Dedicated Outdoor Air System
  NeutralSupplyAir,                       !- Dedicated Outdoor Air System Control Strategy
  autosize,                               !- Dedicated Outdoor Air Low Setpoint Temperature for Design {C}
  autosize,                               !- Dedicated Outdoor Air High Setpoint Temperature for Design {C}
  Sensible Load Only No Latent Load,      !- Zone Load Sizing Method
  HumidityRatioDifference,                !- Zone Latent Cooling Design Supply Air Humidity Ratio Input Method
  ,                                       !- Zone Dehumidification Design Supply Air Humidity Ratio {kgWater/kgDryAir}
  0.005,                                  !- Zone Cooling Design Supply Air Humidity Ratio Difference {kgWater/kgDryAir}
  HumidityRatioDifference,                !- Zone Latent Heating Design Supply Air Humidity Ratio Input Method
  ,                                       !- Zone Humidification Design Supply Air Humidity Ratio {kgWater/kgDryAir}
  0.005,                                  !- Zone Humidification Design Supply Air Humidity Ratio Difference {kgWater/kgDryAir}
  ,                                       !- Zone Humidistat Dehumidification Set Point Schedule Name
  ,                                       !- Zone Humidistat Humidification Set Point Schedule Name
  ,                                       !- Design Zone Air Distribution Effectiveness in Cooling Mode
  ,                                       !- Design Zone Air Distribution Effectiveness in Heating Mode
  ,                                       !- Design Zone Secondary Recirculation Fraction {dimensionless}
  ,                                       !- Design Minimum Zone Ventilation Efficiency {dimensionless}
  Coincident;                             !- Sizing Option

OS:ZoneHVAC:EquipmentList,
  {b87d0dfa-2a92-4a62-8ec0-7dc245360d3c}, !- Handle
  Zone HVAC Equipment List 2,             !- Name
  {21a859fc-f53a-4ff3-8b07-cc4f117ed4c9}; !- Thermal Zone

OS:AdditionalProperties,
  {d0bb1e32-99da-4e44-be18-03efe202f789}, !- Handle
  {21a859fc-f53a-4ff3-8b07-cc4f117ed4c9}, !- Object Name
  ObjectType,                             !- Feature Name 1
  String,                                 !- Feature Data Type 1
  attic - vented;                         !- Feature Value 1

OS:Space,
  {04f71258-b811-41c2-b73a-a88a5a3e7eef}, !- Handle
  attic - vented 1,                       !- Name
  ,                                       !- Space Type Name
  ,                                       !- Default Construction Set Name
  ,                                       !- Default Schedule Set Name
  ,                                       !- Direction of Relative North {deg}
  ,                                       !- X Origin {m}
  ,                                       !- Y Origin {m}
  ,                                       !- Z Origin {m}
  ,                                       !- Building Story Name
  {21a859fc-f53a-4ff3-8b07-cc4f117ed4c9}, !- Thermal Zone Name
  ,                                       !- Part of Total Floor Area
  ,                                       !- Design Specification Outdoor Air Object Name
  ,                                       !- Building Unit Name
  356.389957095237;                       !- Volume {m3}

OS:Material,
  {d2c77eb6-8a4a-4d93-8f9a-e592c62746ed}, !- Handle
  asphalt or fiberglass shingles,         !- Name
  Rough,                                  !- Roughness
  0.00635,                                !- Thickness {m}
  0.162714,                               !- Conductivity {W/m-K}
  1121.4,                                 !- Density {kg/m3}
  1465.45,                                !- Specific Heat {J/kg-K}
  0.9,                                    !- Thermal Absorptance
  0.85,                                   !- Solar Absorptance