
OS:Version,
  {a9fbabd7-03e2-4891-aabc-1ef6f3961e3e}, !- Handle
  3.10.0;                                 !- Version Identifier

OS:SimulationControl,
  {6c36ffcb-d2cb-4686-8b86-3d72c8a272a4}, !- Handle
  ,                                       !- Do Zone Sizing Calculation
  ,                                       !- Do System Sizing Calculation
  ,                                       !- Do Plant Sizing Calculation
  No;                                     !- Run Simulation for Sizing Periods

OS:Timestep,
  {82611688-5725-4082-924d-a90ebe546170}, !- Handle
  1;                                      !- Number of Timesteps per Hour

OS:ShadowCalculation,
  {18f8b1dc-8ce0-4aa6-be21-3771307e1b04}, !- Handle
  PolygonClipping,                        !- Shading Calculation Method
  ,                                       !- Shading Calculation Update Frequency Method
  20,                                     !- Shading Calculation Update Frequency
  200,                                    !- Maximum Figures in Shadow Overlap Calculations
  ,                                       !- Polygon Clipping Algorithm
  512,                                    !- Pixel Counting Resolution
  ,                                       !- Sky Diffuse Modeling Algorithm
  No,                                     !- Output External Shading Calculation Results
  No,                                     !- Disable Self-Shading Within Shading Zone Groups
  No;                                     !- Disable Self-Shading From Shading Zone Groups to Other Zones

OS:SurfaceConvectionAlgorithm:Outside,
  {2761143e-f8f5-417e-aab9-3a83e84778a3}, !- Handle
  DOE-2;                                  !- Algorithm

OS:SurfaceConvectionAlgorithm:Inside,
  {e6cdeabc-5892-4957-a3b4-56e4c8ff5561}, !- Handle
  TARP;                                   !- Algorithm

OS:ZoneCapacitanceMultiplier:ResearchSpecial,
  {fc8cef75-c287-4236-8a49-c7b01650ff94}, !- Handle
  7,                                      !- Temperature Capacity Multiplier
  15,                                     !- Humidity Capacity Multiplier
  ;                                       !- Carbon Dioxide Capacity Multiplier

OS:ConvergenceLimits,
  {8eb8edda-12e6-4188-81c8-b83445b996c3}, !- Handle
  0;                                      !- Minimum System Timestep {minutes}

OS:RunPeriod,
  {356c6f9b-a612-4f82-89c1-8a1d1ce89b4b}, !- Handle
  Run Period 1,                           !- Name
  1,                                      !- Begin Month
  1,                                      !- Begin Day of Month
  12,                                     !- End Month
  31,                                     !- End Day of Month
  ,                                       !- Use Weather File Holidays and Special Days
  ,                                       !- Use Weather File Daylight Saving Period
  ,                                       !- Apply Weekend Holiday Rule
  ,                                       !- Use Weather File Rain Indicators
  ,                                       !- Use Weather File Snow Indicators
  ;                                       !- Number of Times Runperiod to be Repeated

OS:PerformancePrecisionTradeoffs,
  {e7700dfe-61e1-4818-9dec-cc2c02017762}, !- Handle
  ,                                       !- Use Coil Direct Solutions
  CarrollMRT;                             !- Zone Radiant Exchange Algorithm

OS:WeatherFile,
  {7016dbd8-ba91-4529-86d9-330714d48ecc}, !- Handle
  Buffalo Niagara Intl Ap,                !- City
  NY,                                     !- State Province Region
  USA,                                    !- Country
  TMY3,                                   !- Data Source
  725280,                                 !- WMO Number
  42.93,                                  !- Latitude {deg}
  -78.73,                                 !- Longitude {deg}
  -5,                                     !- Time Zone {hr}
  215,                                    !- Elevation {m}
  /Users/nmoore/github/urbanopt-example-geojson-project/example_project/weather/USA_NY_Buffalo-Greater.Buffalo.Intl.AP.725280_TMY3.epw, !- Url
  6B50E0FF,                               !- Checksum
  ,                                       !- Start Date Actual Year
  Sunday;                                 !- Start Day of Week

OS:YearDescription,
  {8d5df9dd-307e-459e-80c8-17885fbc9d84}, !- Handle
  2007,                                   !- Calendar Year
  ,                                       !- Day of Week for Start Day
  ;                                       !- Is Leap Year

OS:Site,
  {bd9d83ab-30dc-4fb1-98df-4d7d8f898a03}, !- Handle
  Buffalo Niagara Intl Ap_NY,             !- Name
  42.93,                                  !- Latitude {deg}
  -78.73,                                 !- Longitude {deg}
  -5,                                     !- Time Zone {hr}
  215,                                    !- Elevation {m}
  Suburbs,                                !- Terrain
  Yes;                                    !- Keep Site Location Information

OS:RunPeriodControl:DaylightSavingTime,
  {0a78185d-2b45-45ae-a8bc-fa5648a1057f}, !- Handle
  Mar 12,                                 !- Start Date
  Nov 5;                                  !- End Date

OS:Site:GroundTemperature:Shallow,
  {8e25a72b-e7dc-4c23-85cf-f7d6ec1b1c81}, !- Handle
  4.30207395723828,                       !- January Surface Ground Temperature {C}
  2.29327249652502,                       !- February Surface Ground Temperature {C}
  2.13240047156047,                       !- March Surface Ground Temperature {C}
  3.08567940719286,                       !- April Surface Ground Temperature {C}
  6.91256312497526,                       !- May Surface Ground Temperature {C}
  10.7216195949507,                       !- June Surface Ground Temperature {C}
  14.0238679822574,                       !- July Surface Ground Temperature {C}
  16.1157611184724,                       !- August Surface Ground Temperature {C}
  16.2934789303462,                       !- September Surface Ground Temperature {C}
  14.5920754632847,                       !- October Surface Ground Temperature {C}
  11.374036348653,                        !- November Surface Ground Temperature {C}
  7.68182621661674;                       !- December Surface Ground Temperature {C}

OS:ThermalZone,
  {07877336-8452-4ae0-b924-f1bcaa4792ab}, !- Handle
  conditioned space,                      !- Name
  1,                                      !- Multiplier
  ,                                       !- Ceiling Height {m}
  692.06373070848,                        !- Volume {m3}
  ,                                       !- Floor Area {m2}
  ,                                       !- Zone Inside Convection Algorithm
  ,                                       !- Zone Outside Convection Algorithm
  ,                                       !- Zone Conditioning Equipment List Name
  {cc2f37ec-af46-42fc-b281-135038c5a351}, !- Zone Air Inlet Port List
  {c8a45c6e-84df-464e-80a4-2b74bdbacc0c}, !- Zone Air Exhaust Port List
  {9da5590a-a64b-4f10-a2a4-4cb8e87d59cd}, !- Zone Air Node Name
  {cbef757d-8730-4b60-a113-06dea7c0dc36}, !- Zone Return Air Port List
  ,                                       !- Primary Daylighting Control Name
  ,                                       !- Fraction of Zone Controlled by Primary Daylighting Control
  ,                                       !- Secondary Daylighting Control Name
  ,                                       !- Fraction of Zone Controlled by Secondary Daylighting Control
  ,                                       !- Illuminance Map Name
  ,                                       !- Group Rendering Name
  {e666fedd-7900-4519-a86e-3b2b3dd508c5}, !- Thermostat Name
  No;                                     !- Use Ideal Air Loads

OS:Node,
  {22ec8d01-59ad-4180-8486-bda25ada9b72}, !- Handle
  Node 1,                                 !- Name
  {9da5590a-a64b-4f10-a2a4-4cb8e87d59cd}, !- Inlet Port
  ;                                       !- Outlet Port

OS:Connection,
  {9da5590a-a64b-4f10-a2a4-4cb8e87d59cd}, !- Handle
  {07877336-8452-4ae0-b924-f1bcaa4792ab}, !- Source Object
  11,                                     !- Outlet Port
  {22ec8d01-59ad-4180-8486-bda25ada9b72}, !- Target Object
  2;                                      !- Inlet Port

OS:PortList,
  {cc2f37ec-af46-42fc-b281-135038c5a351}, !- Handle
  {07877336-8452-4ae0-b924-f1bcaa4792ab}, !- HVAC Component
  {1559c644-6f2a-4c7f-8c5d-feb64d4066a5}; !- Port 1

OS:PortList,
  {c8a45c6e-84df-464e-80a4-2b74bdbacc0c}, !- Handle
  {07877336-8452-4ae0-b924-f1bcaa4792ab}; !- HVAC Component

OS:PortList,
  {cbef757d-8730-4b60-a113-06dea7c0dc36}, !- Handle
  {07877336-8452-4ae0-b924-f1bcaa4792ab}, !- HVAC Component
  {332d5ac2-16a5-4078-9458-a68d934ac7d4}; !- Port 1

OS:Sizing:Zone,
  {d99ac26b-00b9-4373-a006-c3aea4c1d8a6}, !- Handle
  {07877336-8452-4ae0-b924-f1bcaa4792ab}, !- Zone or ZoneList Name
  SupplyAirTemperature,                   !- Zone Cooling Design Supply Air Temperature Input Method
  14,                                     !- Zone Cooling Design Supply Air Temperature {C}
  11.11,                                  !- Zone Cooling Design Supply Air Temperature Difference {deltaC}
  SupplyAirTemperature,                   !- Zone Heating Design Supply Air Temperature Input Method
  40,                                     !- Zone Heating Design Supply Air Temperature {C}
  11.11,                                  !- Zone Heating Design Supply Air Temperature Difference {deltaC}
  0.0085,                                 !- Zone Cooling Design Supply Air Humidity Ratio {kg-H2O/kg-air}
  0.008,                                  !- Zone Heating Design Supply Air Humidity Ratio {kg-H2O/kg-air}
  ,                                       !- Zone Heating Sizing Factor
  ,                                       !- Zone Cooling Sizing Factor
  DesignDay,                              !- Cooling Design Air Flow Method
  ,                                       !- Cooling Design Air Flow Rate {m3/s}
  ,                                       !- Cooling Minimum Air Flow per Zone Floor Area {m3/s-m2}
  ,                                       !- Cooling Minimum Air Flow {m3/s}
  ,                                       !- Cooling Minimum Air Flow Fraction
  DesignDay,                              !- Heating Design Air Flow Method
  ,                                       !- Heating Design Air Flow Rate {m3/s}
  ,                                       !- Heating Maximum Air Flow per Zone Floor Area {m3/s-m2}
  ,                                       !- Heating Maximum Air Flow {m3/s}
  ,                                       !- Heating Maximum Air Flow Fraction
  No,                                     !- Account for Dedicated Outdoor Air System
  NeutralSupplyAir,                       !- Dedicated Outdoor Air System Control Strategy
  autosize,                               !- Dedicated Outdoor Air Low Setpoint Temperature for Design {C}
  autosize,                               !- Dedicated Outdoor Air High Setpoint Temperature for Design {C}
  Sensible Load Only No Latent Load,      !- Zone Load Sizing Method
  HumidityRatioDifference,                !- Zone Latent Cooling Design Supply Air Humidity Ratio Input Method
  ,                                       !- Zone Dehumidification Design Supply Air Humidity Ratio {kgWater/kgDryAir}
  0.005,                                  !- Zone Cooling Design Supply Air Humidity Ratio Difference {kgWater/kgDryAir}
  HumidityRatioDifference,                !- Zone Latent Heating Design Supply Air Humidity Ratio Input Method
  ,                                       !- Zone Humidification Design Supply Air Humidity Ratio {kgWater/kgDryAir}
  0.005,                                  !- Zone Humidification Design Supply Air Humidity Ratio Difference {kgWater/kgDryAir}
  ,                                       !- Zone Humidistat Dehumidification Set Point Schedule Name
  ,                                       !- Zone Humidistat Humidification Set Point Schedule Name
  ,                                       !- Design Zone Air Distribution Effectiveness in Cooling Mode
  ,                                       !- Design Zone Air Distribution Effectiveness in Heating Mode
  ,                                       !- Design Zone Secondary Recirculation Fraction {dimensionless}
  ,                                       !- Design Minimum Zone Ventilation Efficiency {dimensionless}
  Coincident;                             !- Sizing Option

OS:ZoneHVAC:EquipmentList,
  {ff151384-5e40-4b4a-93e9-705002725c77}, !- Handle
  Zone HVAC Equipment List 1,             !- Name
  {07877336-8452-4ae0-b924-f1bcaa4792ab}, !- Thermal Zone
  ,                                       !- Load Distribution Scheme
  {d0e2416d-bb71-4c0a-b51a-57b26a62e883}, !- Zone Equipment 1
  1,                                      !- Zone Equipment Cooling Sequence 1
  1,                                      !- Zone Equipment Heating or No-Load Sequence 1
  {ade23f51-5ab9-4fad-8d28-c11cd11ef3ef}, !- Zone Equipment Sequential Cooling Fraction Schedule Name 1
  {f75a208d-f12f-4702-a154-37902ed0c5a5}; !- Zone Equipment Sequential Heating Fraction Schedule Name 1

OS:AdditionalProperties,
  {5115f857-d907-4d77-befa-1df9e74c4c01}, !- Handle
  {07877336-8452-4ae0-b924-f1bcaa4792ab}, !- Object Name
  ObjectType,                             !- Feature Name 1
  String,                                 !- Feature Data Type 1
  conditioned space;                      !- Feature Value 1

OS:Space,
  {d120dcd4-659f-4998-80ad-6c8fd53f7746}, !- Handle
  conditioned space 1,                    !- Name
  ,                                       !- Space Type Name
  ,                                       !- Default Construction Set Name
  ,                                       !- Default Schedule Set Name
  ,                                       !- Direction of Relative North {deg}
  ,                                       !- X Origin {m}
  ,                                       !- Y Origin {m}
  ,                                       !- Z Origin {m}
  ,                                       !- Building Story Name
  {07877336-8452-4ae0-b924-f1bcaa4792ab}, !- Thermal Zone Name
  ,                                       !- Part of Total Floor Area
  ,                                       !- Design Specification Outdoor Air Object Name
  ,                                       !- Building Unit Name
  692.06373070848;                        !- Volume {m3}

OS:Schedule:Ruleset,
  {e537b3be-ee63-482e-8bdf-5876bba819ae}, !- Handle
  heating setpoint,                       !- Name
  {f644a972-853d-4aab-bbbf-219da497bfcb}, !- Schedule Type Limits Name
  {4d5516cb-33de-4c3b-9413-f9059902e545}; !- Default Day Schedule Name

OS:Schedule:Day,
  {4d5516cb-33de-4c3b-9413-f9059902e545}, !- Handle
  heating setpoint default day,           !- Name
  {f644a972-853d-4aab-bbbf-219da497bfcb}, !- Schedule Type Limits Name
  ,                                       !- Interpolate to Timestep
  24,                                     !- Hour 1
  0,                                      !- Minute 1
  0;                                      !- Value Until Time 1

OS:Schedule:Rule,
  {2a81c004-2c30-4408-92ad-c97fb34ed1c1}, !- Handle
  heating setpoint allday rule,           !- Name
  {e537b3be-ee63-482e-8bdf-5876bba819ae}, !- Schedule Ruleset Name
  0,                                      !- Rule Order
  {f5035c50-8de9-4e2a-ba1b-1b00e0987f1b}, !- Day Schedule Name
  Yes,                                    !- Apply Sunday
  Yes,                                    !- Apply Monday
  Yes,                                    !- Apply Tuesday
  Yes,                                    !- Apply Wednesday
  Yes,                                    !- Apply Thursday
  Yes,                                    !- Apply Friday
  Yes,                                    !- Apply Saturday
  DateRange,                              !- Date Specification Type
  1,                                      !- Start Month
  1,                                      !- Start Day
  12,                                     !- End Month
  31;                                     !- End Day

OS:Schedule:Day,
  {f5035c50-8de9-4e2a-ba1b-1b00e0987f1b}, !- Handle
  heating setpoint day,                   !- Name
  {f644a972-853d-4aab-bbbf-219da497bfcb}, !- Schedule Type Limits Name
  ,                                       !- Interpolate to Timestep
  24,                                     !- Hour 1
  0,                                      !- Minute 1
  20;                                     !- Value Until Time 1

OS:Schedule:Ruleset,
  {8f0ed28c-2356-4e70-9a2f-f9ca387352f7}, !- Handle
  cooling setpoint,                       !- Name
  {f644a972-853d-4aab-bbbf-219da497bfcb}, !- Schedule Type Limits Name
  {de81bafc-9e6e-4458-ad0b-ce507f2fa27b}; !- Default Day Schedule Name

OS:Schedule:Day,
  {de81bafc-9e6e-4458-ad0b-ce507f2fa27b}, !- Handle
  cooling setpoint default day,           !- Name
  {f644a972-853d-4aab-bbbf-219da497bfcb}, !- Schedule Type Limits Name
  ,                                       !- Interpolate to Timestep
  24,                                     !- Hour 1
  0,                                      !- Minute 1
  0;                                      !- Value Until Time 1

OS:Schedule:Rule,
  {a9c0b2f1-8bdb-49c3-a690-9b042cef84e3}, !- Handle
  cooling setpoint allday rule,           !- Name
  {8f0ed28c-2356-4e70-9a2f-f9ca387352f7}, !- Schedule Ruleset Name
  0,                                      !- Rule Order
  {f7c6a4ce-f88e-40fb-baa9-99a657f9c2b7}, !- Day Schedule Name
  Yes,                                    !- Apply Sunday
  Yes,                                    !- Apply Monday
  Yes,                                    !- Apply Tuesday
  Yes,                                    !- Apply Wednesday
  Yes,                                    !- Apply Thursday
  Yes,                                    !- Apply Friday
  Yes,                                    !- Apply Saturday
  DateRange,                              !- Date Specification Type
  1,                                      !- Start Month
  1,                                      !- Start Day
  12,                                     !- End Month
  31;                                     !- End Day

OS:Schedule:Day,
  {f7c6a4ce-f88e-40fb-baa9-99a657f9c2b7}, !- Handle
  cooling setpoint day,                   !- Name
  {f644a972-853d-4aab-bbbf-219da497bfcb}, !- Schedule Type Limits Name
  ,                                       !- Interpolate to Timestep
  24,                                     !- Hour 1
  0,                                      !- Minute 1
  25.5555555555556;                       !- Value Until Time 1

OS:ThermostatSetpoint:DualSetpoint,
  {e666fedd-7900-4519-a86e-3b2b3dd508c5}, !- Handle
  conditioned space temperature setpoint, !- Name
  {e537b3be-ee63-482e-8bdf-5876bba819ae}, !- Heating Setpoint Temperature Schedule Name
  {8f0ed28c-2356-4e70-9a2f-f9ca387352f7}, !- Cooling Setpoint Temperature Schedule Name
  0;                                      !- Temperature Difference Between Cutout And Setpoint {deltaC}

OS:ScheduleTypeLimits,
  {f644a972-853d-4aab-bbbf-219da497bfcb}, !- Handle
  Temperature,                            !- Name
  ,                                       !- Lower Limit Value
  ,                                       !- Upper Limit Value
  Continuous,                             !- Numeric Type
  Temperature;                            !- Unit Type

OS:Surface,
  {1b5c6428-34bf-4ead-bb57-ea85d6134e39}, !- Handle
  Roof1,                                  !- Name
  RoofCeiling,                            !- Surface Type
  {cd51aa2e-4717-4920-b280-4d670958392a}, !- Construction Name
  {274c267c-6561-478e-a0d8-fbf88c2ebbe5}, !- Space Name
  Outdoors,                               !- Outside Boundary Condition
  ,                                       !- Outside Boundary Condition Object
  SunExposed,                             !- Sun Exposure
  WindExposed,                            !- Wind Exposure
  ,                                       !- View Factor to Ground
  ,                                       !- Number of Vertices
  -26.9347048849634, 58.0557891618865, 2.4384, !- X,Y,Z Vertex 1 {m}
  -26.9347048849634, 46.7895631136661, 8.0715130241102, !- X,Y,Z Vertex 2 {m}
  -14.3386812381136, 46.7895631136661, 8.0715130241102, !- X,Y,Z Vertex 3 {m}
  -14.3386812381136, 58.0557891618865, 2.4384; !- X,Y,Z Vertex 4 {m}

OS:AdditionalProperties,
  {7bd39391-df74-4a85-8008-dc0306d1558d}, !- Handle
  {1b5c6428-34bf-4ead-bb57-ea85d6134e39}, !- Object Name
  Length,                                 !- Feature Name 1
  Double,                                 !- Feature Data Type 1
  41.325536899113608,                     !- Feature Value 1
  Width,                                  !- Feature Name 2
  Double,                                 !- Feature Data Type 2
  41.325536899113601,                     !- Feature Value 2
  Azimuth,                                !- Feature Name 3
  Integer,                                !- Feature Data Type 3
  0,                                      !- Feature Value 3
  Tilt,                                   !- Feature Name 4
  Double,                                 !- Feature Data Type 4
  0.5,                                    !- Feature Value 4
  SurfaceType,                            !- Feature Name 5
  String,                                 !- Feature Data Type 5
  Roof;                                   !- Feature Value 5

OS:ThermalZone,
  {e5cc212d-ebb5-4946-9280-186e934e357c}, !- Handle
  attic - vented,                         !- Name
  1,                                      !- Multiplier
  ,                                       !- Ceiling Height {m}
  356.390921899745,                       !- Volume {m3}
  ,                                       !- Floor Area {m2}
  ,                                       !- Zone Inside Convection Algorithm
  ,                                       !- Zone Outside Convection Algorithm
  ,                                       !- Zone Conditioning Equipment List Name
  {0a91b41c-ed30-4e3e-ac95-fd1333b174f9}, !- Zone Air Inlet Port List
  {8ad7cc07-7eb8-4a52-bd33-9848e518a1d2}, !- Zone Air Exhaust Port List
  {088cdca4-065a-4733-99bc-f4e2643b7efa}, !- Zone Air Node Name
  {e8b7ea98-0be4-471f-8b34-1c2378316a2a}, !- Zone Return Air Port List
  ,                                       !- Primary Daylighting Control Name
  ,                                       !- Fraction of Zone Controlled by Primary Daylighting Control
  ,                                       !- Secondary Daylighting Control Name
  ,                                       !- Fraction of Zone Controlled by Secondary Daylighting Control
  ,                                       !- Illuminance Map Name
  ,                                       !- Group Rendering Name
  ,                                       !- Thermostat Name
  No;                                     !- Use Ideal Air Loads

OS:Node,
  {11c56171-868e-47fa-9f1e-9daa30904f86}, !- Handle
  Node 2,                                 !- Name
  {088cdca4-065a-4733-99bc-f4e2643b7efa}, !- Inlet Port
  ;                                       !- Outlet Port

OS:Connection,
  {088cdca4-065a-4733-99bc-f4e2643b7efa}, !- Handle
  {e5cc212d-ebb5-4946-9280-186e934e357c}, !- Source Object
  11,                                     !- Outlet Port
  {11c56171-868e-47fa-9f1e-9daa30904f86}, !- Target Object
  2;                                      !- Inlet Port

OS:PortList,
  {0a91b41c-ed30-4e3e-ac95-fd1333b174f9}, !- Handle
  {e5cc212d-ebb5-4946-9280-186e934e357c}; !- HVAC Component

OS:PortList,
  {8ad7cc07-7eb8-4a52-bd33-9848e518a1d2}, !- Handle
  {e5cc212d-ebb5-4946-9280-186e934e357c}; !- HVAC Component

OS:PortList,
  {e8b7ea98-0be4-471f-8b34-1c2378316a2a}, !- Handle
  {e5cc212d-ebb5-4946-9280-186e934e357c}; !- HVAC Component

OS:Sizing:Zone,
  {6d70beff-d9c7-422a-8a86-42f70fda8eb6}, !- Handle
  {e5cc212d-ebb5-4946-9280-186e934e357c}, !- Zone or ZoneList Name
  SupplyAirTemperature,                   !- Zone Cooling Design Supply Air Temperature Input Method
  14,                                     !- Zone Cooling Design Supply Air Temperature {C}
  11.11,                                  !- Zone Cooling Design Supply Air Temperature Difference {deltaC}
  SupplyAirTemperature,                   !- Zone Heating Design Supply Air Temperature Input Method
  40,                                     !- Zone Heating Design Supply Air Temperature {C}
  11.11,                                  !- Zone Heating Design Supply Air Temperature Difference {deltaC}
  0.0085,                                 !- Zone Cooling Design Supply Air Humidity Ratio {kg-H2O/kg-air}
  0.008,                                  !- Zone Heating Design Supply Air Humidity Ratio {kg-H2O/kg-air}
  ,                                       !- Zone Heating Sizing Factor
  ,                                       !- Zone Cooling Sizing Factor
  DesignDay,                              !- Cooling Design Air Flow Method
  ,                                       !- Cooling Design Air Flow Rate {m3/s}
  ,                                       !- Cooling Minimum Air Flow per Zone Floor Area {m3/s-m2}
  ,                                       !- Cooling Minimum Air Flow {m3/s}
  ,                                       !- Cooling Minimum Air Flow Fraction
  DesignDay,                              !- Heating Design Air Flow Method
  ,                                       !- Heating Design Air Flow Rate {m3/s}
  ,                                       !- Heating Maximum Air Flow per Zone Floor Area {m3/s-m2}
  ,                                       !- Heating Maximum Air Flow {m3/s}
  ,                                       !- Heating Maximum Air Flow Fraction
  No,                                     !- Account for Dedicated Outdoor Air System
  NeutralSupplyAir,                       !- Dedicated Outdoor Air System Control Strategy
  autosize,                               !- Dedicated Outdoor Air Low Setpoint Temperature for Design {C}
  autosize,                               !- Dedicated Outdoor Air High Setpoint Temperature for Design {C}
  Sensible Load Only No Latent Load,      !- Zone Load Sizing Method
  HumidityRatioDifference,                !- Zone Latent Cooling Design Supply Air Humidity Ratio Input Method
  ,                                       !- Zone Dehumidification Design Supply Air Humidity Ratio {kgWater/kgDryAir}
  0.005,                                  !- Zone Cooling Design Supply Air Humidity Ratio Difference {kgWater/kgDryAir}
  HumidityRatioDifference,                !- Zone Latent Heating Design Supply Air Humidity Ratio Input Method
  ,                                       !- Zone Humidification Design Supply Air Humidity Ratio {kgWater/kgDryAir}
  0.005,                                  !- Zone Humidification Design Supply Air Humidity Ratio Difference {kgWater/kgDryAir}
  ,                                       !- Zone Humidistat Dehumidification Set Point Schedule Name
  ,                                       !- Zone Humidistat Humidification Set Point Schedule Name
  ,                                       !- Design Zone Air Distribution Effectiveness in Cooling Mode
  ,                                       !- Design Zone Air Distribution Effectiveness in Heating Mode
  ,                                       !- Design Zone Secondary Recirculation Fraction {dimensionless}
  ,                                       !- Design Minimum Zone Ventilation Efficiency {dimensionless}
  Coincident;                             !- Sizing Option

OS:ZoneHVAC:EquipmentList,
  {6ccf19c9-fc41-4e81-a1fc-be1635ba049b}, !- Handle
  Zone HVAC Equipment List 2,             !- Name
  {e5cc212d-ebb5-4946-9280-186e934e357c}; !- Thermal Zone

OS:AdditionalProperties,
  {5acc7d8d-9198-4914-839d-ac6cd7c2b18c}, !- Handle
  {e5cc212d-ebb5-4946-9280-186e934e357c}, !- Object Name
  ObjectType,                             !- Feature Name 1
  String,                                 !- Feature Data Type 1
  attic - vented;                         !- Feature Value 1

OS:Space,
  {274c267c-6561-478e-a0d8-fbf88c2ebbe5}, !- Handle
  attic - vented 1,                       !- Name
  ,                                       !- Space Type Name
  ,                                       !- Default Construction Set Name
  ,                                       !- Default Schedule Set Name
  ,                                       !- Direction of Relative North {deg}
  ,                                       !- X Origin {m}
  ,                                       !- Y Origin {m}
  ,                                       !- Z Origin {m}
  ,                                       !- Building Story Name
  {e5cc212d-ebb5-4946-9280-186e934e357c}, !- Thermal Zone Name
  ,                                       !- Part of Total Floor Area
  ,                                       !- Design Specification Outdoor Air Object Name
  ,                                       !- Building Unit Name
  356.390921899745;                       !- Volume {m3}

OS:Material,
  {d754f485-b2b5-4ef5-94aa-973e607f0f34}, !- Handle
  asphalt or fiberglass shingles,         !- Name
  Rough,                                  !- Roughness
  0.00635,                                !- Thickness {m}
  0.162714,                               !- Conductivity {W/m-K}
  1121.4,                                 !- Density {kg/m3}
  1465.45,                                !- Specific Heat {J/kg-K}
  0.9,                                    !- Thermal Absorptance
  0.85,                                   !- Solar Absorptance