
OS:Version,
  {f6068a8d-71f3-46f6-82a4-29bb778c812a}, !- Handle
  3.10.0;                                 !- Version Identifier

OS:SimulationControl,
  {57231c75-c898-48b2-b431-f85afb78afa6}, !- Handle
  ,                                       !- Do Zone Sizing Calculation
  ,                                       !- Do System Sizing Calculation
  ,                                       !- Do Plant Sizing Calculation
  No;                                     !- Run Simulation for Sizing Periods

OS:Timestep,
  {b0ec5d04-ac88-4b41-b205-99da75eefb61}, !- Handle
  1;                                      !- Number of Timesteps per Hour

OS:ShadowCalculation,
  {27459ed6-79a7-4631-a110-439d3a4e8b67}, !- Handle
  PolygonClipping,                        !- Shading Calculation Method
  ,                                       !- Shading Calculation Update Frequency Method
  20,                                     !- Shading Calculation Update Frequency
  200,                                    !- Maximum Figures in Shadow Overlap Calculations
  ,                                       !- Polygon Clipping Algorithm
  512,                                    !- Pixel Counting Resolution
  ,                                       !- Sky Diffuse Modeling Algorithm
  No,                                     !- Output External Shading Calculation Results
  No,                                     !- Disable Self-Shading Within Shading Zone Groups
  No;                                     !- Disable Self-Shading From Shading Zone Groups to Other Zones

OS:SurfaceConvectionAlgorithm:Outside,
  {ea603d0a-8de5-4bd3-8503-03862ea66e39}, !- Handle
  DOE-2;                                  !- Algorithm

OS:SurfaceConvectionAlgorithm:Inside,
  {2f3bdab6-ec38-415a-8ce2-ed0839918976}, !- Handle
  TARP;                                   !- Algorithm

OS:ZoneCapacitanceMultiplier:ResearchSpecial,
  {cead76b1-c9d7-4543-b990-a2b534cb6157}, !- Handle
  7,                                      !- Temperature Capacity Multiplier
  15,                                     !- Humidity Capacity Multiplier
  ;                                       !- Carbon Dioxide Capacity Multiplier

OS:ConvergenceLimits,
  {f06973e8-8c7b-4a6f-a6d5-6400a63e5654}, !- Handle
  0;                                      !- Minimum System Timestep {minutes}

OS:RunPeriod,
  {2e06c755-a1b0-43ff-9b2b-45324d96d86b}, !- Handle
  Run Period 1,                           !- Name
  1,                                      !- Begin Month
  1,                                      !- Begin Day of Month
  12,                                     !- End Month
  31,                                     !- End Day of Month
  ,                                       !- Use Weather File Holidays and Special Days
  ,                                       !- Use Weather File Daylight Saving Period
  ,                                       !- Apply Weekend Holiday Rule
  ,                                       !- Use Weather File Rain Indicators
  ,                                       !- Use Weather File Snow Indicators
  ;                                       !- Number of Times Runperiod to be Repeated

OS:PerformancePrecisionTradeoffs,
  {350d60f7-fcf7-4136-a778-437b9d2c9cb9}, !- Handle
  ,                                       !- Use Coil Direct Solutions
  CarrollMRT;                             !- Zone Radiant Exchange Algorithm

OS:WeatherFile,
  {baceccec-56d9-4bf4-af39-d1490ba04a07}, !- Handle
  Buffalo Niagara Intl Ap,                !- City
  NY,                                     !- State Province Region
  USA,                                    !- Country
  TMY3,                                   !- Data Source
  725280,                                 !- WMO Number
  42.93,                                  !- Latitude {deg}
  -78.73,                                 !- Longitude {deg}
  -5,                                     !- Time Zone {hr}
  215,                                    !- Elevation {m}
  /Users/nmoore/github/urbanopt-example-geojson-project/example_project/weather/USA_NY_Buffalo-Greater.Buffalo.Intl.AP.725280_TMY3.epw, !- Url
  6B50E0FF,                               !- Checksum
  ,                                       !- Start Date Actual Year
  Sunday;                                 !- Start Day of Week

OS:YearDescription,
  {6c919f16-1354-4c50-9f85-4465b7adb591}, !- Handle
  2007,                                   !- Calendar Year
  ,                                       !- Day of Week for Start Day
  ;                                       !- Is Leap Year

OS:Site,
  {405708a0-0258-4d68-8be6-a9437bb677be}, !- Handle
  Buffalo Niagara Intl Ap_NY,             !- Name
  42.93,                                  !- Latitude {deg}
  -78.73,                                 !- Longitude {deg}
  -5,                                     !- Time Zone {hr}
  215,                                    !- Elevation {m}
  Suburbs,                                !- Terrain
  Yes;                                    !- Keep Site Location Information

OS:RunPeriodControl:DaylightSavingTime,
  {30c6177e-0f24-457a-bae0-0416131d2e4e}, !- Handle
  Mar 12,                                 !- Start Date
  Nov 5;                                  !- End Date

OS:Site:GroundTemperature:Shallow,
  {feeb7c59-a779-4e25-8b4b-a61e319de062}, !- Handle
  4.30207395723828,                       !- January Surface Ground Temperature {C}
  2.29327249652502,                       !- February Surface Ground Temperature {C}
  2.13240047156047,                       !- March Surface Ground Temperature {C}
  3.08567940719286,                       !- April Surface Ground Temperature {C}
  6.91256312497526,                       !- May Surface Ground Temperature {C}
  10.7216195949507,                       !- June Surface Ground Temperature {C}
  14.0238679822574,                       !- July Surface Ground Temperature {C}
  16.1157611184724,                       !- August Surface Ground Temperature {C}
  16.2934789303462,                       !- September Surface Ground Temperature {C}
  14.5920754632847,                       !- October Surface Ground Temperature {C}
  11.374036348653,                        !- November Surface Ground Temperature {C}
  7.68182621661674;                       !- December Surface Ground Temperature {C}

OS:ThermalZone,
  {0682f129-30dc-43c7-b793-e2c9883954c9}, !- Handle
  conditioned space,                      !- Name
  1,                                      !- Multiplier
  ,                                       !- Ceiling Height {m}
  692.06373070848,                        !- Volume {m3}
  ,                                       !- Floor Area {m2}
  ,                                       !- Zone Inside Convection Algorithm
  ,                                       !- Zone Outside Convection Algorithm
  ,                                       !- Zone Conditioning Equipment List Name
  {c29dcf29-5d59-43b7-b7c2-1b2b04e5111c}, !- Zone Air Inlet Port List
  {c095ba87-7b92-4740-a137-d8dfc90f9b01}, !- Zone Air Exhaust Port List
  {d415239d-b8d3-44bf-bcfb-a8d90410cd81}, !- Zone Air Node Name
  {7be6ba36-18b3-4fa7-b333-9e89d2dae176}, !- Zone Return Air Port List
  ,                                       !- Primary Daylighting Control Name
  ,                                       !- Fraction of Zone Controlled by Primary Daylighting Control
  ,                                       !- Secondary Daylighting Control Name
  ,                                       !- Fraction of Zone Controlled by Secondary Daylighting Control
  ,                                       !- Illuminance Map Name
  ,                                       !- Group Rendering Name
  {a70298ba-d490-408b-b56f-63a62e45a94f}, !- Thermostat Name
  No;                                     !- Use Ideal Air Loads

OS:Node,
  {004b738f-dc0f-41ac-9764-c09d4c0f03db}, !- Handle
  Node 1,                                 !- Name
  {d415239d-b8d3-44bf-bcfb-a8d90410cd81}, !- Inlet Port
  ;                                       !- Outlet Port

OS:Connection,
  {d415239d-b8d3-44bf-bcfb-a8d90410cd81}, !- Handle
  {0682f129-30dc-43c7-b793-e2c9883954c9}, !- Source Object
  11,                                     !- Outlet Port
  {004b738f-dc0f-41ac-9764-c09d4c0f03db}, !- Target Object
  2;                                      !- Inlet Port

OS:PortList,
  {c29dcf29-5d59-43b7-b7c2-1b2b04e5111c}, !- Handle
  {0682f129-30dc-43c7-b793-e2c9883954c9}, !- HVAC Component
  {0645daa8-0281-48c2-91ad-d37669ebc426}; !- Port 1

OS:PortList,
  {c095ba87-7b92-4740-a137-d8dfc90f9b01}, !- Handle
  {0682f129-30dc-43c7-b793-e2c9883954c9}; !- HVAC Component

OS:PortList,
  {7be6ba36-18b3-4fa7-b333-9e89d2dae176}, !- Handle
  {0682f129-30dc-43c7-b793-e2c9883954c9}, !- HVAC Component
  {deafcfb3-a7de-4786-89d7-b12f5c542d7e}; !- Port 1

OS:Sizing:Zone,
  {cc879dbf-9fe5-427d-90d5-56e51801dac0}, !- Handle
  {0682f129-30dc-43c7-b793-e2c9883954c9}, !- Zone or ZoneList Name
  SupplyAirTemperature,                   !- Zone Cooling Design Supply Air Temperature Input Method
  14,                                     !- Zone Cooling Design Supply Air Temperature {C}
  11.11,                                  !- Zone Cooling Design Supply Air Temperature Difference {deltaC}
  SupplyAirTemperature,                   !- Zone Heating Design Supply Air Temperature Input Method
  40,                                     !- Zone Heating Design Supply Air Temperature {C}
  11.11,                                  !- Zone Heating Design Supply Air Temperature Difference {deltaC}
  0.0085,                                 !- Zone Cooling Design Supply Air Humidity Ratio {kg-H2O/kg-air}
  0.008,                                  !- Zone Heating Design Supply Air Humidity Ratio {kg-H2O/kg-air}
  ,                                       !- Zone Heating Sizing Factor
  ,                                       !- Zone Cooling Sizing Factor
  DesignDay,                              !- Cooling Design Air Flow Method
  ,                                       !- Cooling Design Air Flow Rate {m3/s}
  ,                                       !- Cooling Minimum Air Flow per Zone Floor Area {m3/s-m2}
  ,                                       !- Cooling Minimum Air Flow {m3/s}
  ,                                       !- Cooling Minimum Air Flow Fraction
  DesignDay,                              !- Heating Design Air Flow Method
  ,                                       !- Heating Design Air Flow Rate {m3/s}
  ,                                       !- Heating Maximum Air Flow per Zone Floor Area {m3/s-m2}
  ,                                       !- Heating Maximum Air Flow {m3/s}
  ,                                       !- Heating Maximum Air Flow Fraction
  No,                                     !- Account for Dedicated Outdoor Air System
  NeutralSupplyAir,                       !- Dedicated Outdoor Air System Control Strategy
  autosize,                               !- Dedicated Outdoor Air Low Setpoint Temperature for Design {C}
  autosize,                               !- Dedicated Outdoor Air High Setpoint Temperature for Design {C}
  Sensible Load Only No Latent Load,      !- Zone Load Sizing Method
  HumidityRatioDifference,                !- Zone Latent Cooling Design Supply Air Humidity Ratio Input Method
  ,                                       !- Zone Dehumidification Design Supply Air Humidity Ratio {kgWater/kgDryAir}
  0.005,                                  !- Zone Cooling Design Supply Air Humidity Ratio Difference {kgWater/kgDryAir}
  HumidityRatioDifference,                !- Zone Latent Heating Design Supply Air Humidity Ratio Input Method
  ,                                       !- Zone Humidification Design Supply Air Humidity Ratio {kgWater/kgDryAir}
  0.005,                                  !- Zone Humidification Design Supply Air Humidity Ratio Difference {kgWater/kgDryAir}
  ,                                       !- Zone Humidistat Dehumidification Set Point Schedule Name
  ,                                       !- Zone Humidistat Humidification Set Point Schedule Name
  ,                                       !- Design Zone Air Distribution Effectiveness in Cooling Mode
  ,                                       !- Design Zone Air Distribution Effectiveness in Heating Mode
  ,                                       !- Design Zone Secondary Recirculation Fraction {dimensionless}
  ,                                       !- Design Minimum Zone Ventilation Efficiency {dimensionless}
  Coincident;                             !- Sizing Option

OS:ZoneHVAC:EquipmentList,
  {2916df45-e70d-4a13-a516-f4ff421f6674}, !- Handle
  Zone HVAC Equipment List 1,             !- Name
  {0682f129-30dc-43c7-b793-e2c9883954c9}, !- Thermal Zone
  ,                                       !- Load Distribution Scheme
  {5651ad28-40c6-4e5a-b086-2bfdbefd01c3}, !- Zone Equipment 1
  1,                                      !- Zone Equipment Cooling Sequence 1
  1,                                      !- Zone Equipment Heating or No-Load Sequence 1
  {9e22bd84-6955-4537-993e-cf4dccecb833}, !- Zone Equipment Sequential Cooling Fraction Schedule Name 1
  {29f4170a-777c-49bf-914e-8c3e57e06b43}; !- Zone Equipment Sequential Heating Fraction Schedule Name 1

OS:AdditionalProperties,
  {5d74729b-7663-44d6-bd55-80a943de8ad1}, !- Handle
  {0682f129-30dc-43c7-b793-e2c9883954c9}, !- Object Name
  ObjectType,                             !- Feature Name 1
  String,                                 !- Feature Data Type 1
  conditioned space;                      !- Feature Value 1

OS:Space,
  {d77aae5d-f326-48a8-99fa-8a63da847a7b}, !- Handle
  conditioned space 1,                    !- Name
  ,                                       !- Space Type Name
  ,                                       !- Default Construction Set Name
  ,                                       !- Default Schedule Set Name
  ,                                       !- Direction of Relative North {deg}
  ,                                       !- X Origin {m}
  ,                                       !- Y Origin {m}
  ,                                       !- Z Origin {m}
  ,                                       !- Building Story Name
  {0682f129-30dc-43c7-b793-e2c9883954c9}, !- Thermal Zone Name
  ,                                       !- Part of Total Floor Area
  ,                                       !- Design Specification Outdoor Air Object Name
  ,                                       !- Building Unit Name
  692.06373070848;                        !- Volume {m3}

OS:Schedule:Ruleset,
  {597c909d-66e4-4dec-a2d5-4b2582a76112}, !- Handle
  heating setpoint,                       !- Name
  {7ec66a83-fb0a-4b97-bc38-4f58a3596f44}, !- Schedule Type Limits Name
  {04cfc217-5554-4e3a-a09b-4a39f429fee9}; !- Default Day Schedule Name

OS:Schedule:Day,
  {04cfc217-5554-4e3a-a09b-4a39f429fee9}, !- Handle
  heating setpoint default day,           !- Name
  {7ec66a83-fb0a-4b97-bc38-4f58a3596f44}, !- Schedule Type Limits Name
  ,                                       !- Interpolate to Timestep
  24,                                     !- Hour 1
  0,                                      !- Minute 1
  0;                                      !- Value Until Time 1

OS:Schedule:Rule,
  {362ab9a5-8cc0-404e-9061-043191a6439e}, !- Handle
  heating setpoint allday rule,           !- Name
  {597c909d-66e4-4dec-a2d5-4b2582a76112}, !- Schedule Ruleset Name
  0,                                      !- Rule Order
  {ce949415-a1c5-4670-a81c-e3d6bb177e5c}, !- Day Schedule Name
  Yes,                                    !- Apply Sunday
  Yes,                                    !- Apply Monday
  Yes,                                    !- Apply Tuesday
  Yes,                                    !- Apply Wednesday
  Yes,                                    !- Apply Thursday
  Yes,                                    !- Apply Friday
  Yes,                                    !- Apply Saturday
  DateRange,                              !- Date Specification Type
  1,                                      !- Start Month
  1,                                      !- Start Day
  12,                                     !- End Month
  31;                                     !- End Day

OS:Schedule:Day,
  {ce949415-a1c5-4670-a81c-e3d6bb177e5c}, !- Handle
  heating setpoint day,                   !- Name
  {7ec66a83-fb0a-4b97-bc38-4f58a3596f44}, !- Schedule Type Limits Name
  ,                                       !- Interpolate to Timestep
  24,                                     !- Hour 1
  0,                                      !- Minute 1
  20;                                     !- Value Until Time 1

OS:Schedule:Ruleset,
  {a6e4c404-d897-4d64-94e9-43b7645ed459}, !- Handle
  cooling setpoint,                       !- Name
  {7ec66a83-fb0a-4b97-bc38-4f58a3596f44}, !- Schedule Type Limits Name
  {fb3eb056-6330-439f-aaf1-695240635182}; !- Default Day Schedule Name

OS:Schedule:Day,
  {fb3eb056-6330-439f-aaf1-695240635182}, !- Handle
  cooling setpoint default day,           !- Name
  {7ec66a83-fb0a-4b97-bc38-4f58a3596f44}, !- Schedule Type Limits Name
  ,                                       !- Interpolate to Timestep
  24,                                     !- Hour 1
  0,                                      !- Minute 1
  0;                                      !- Value Until Time 1

OS:Schedule:Rule,
  {d2304863-8b7a-4882-8b49-8a383288d264}, !- Handle
  cooling setpoint allday rule,           !- Name
  {a6e4c404-d897-4d64-94e9-43b7645ed459}, !- Schedule Ruleset Name
  0,                                      !- Rule Order
  {551a08a2-505c-482e-9c65-e5c75b80097f}, !- Day Schedule Name
  Yes,                                    !- Apply Sunday
  Yes,                                    !- Apply Monday
  Yes,                                    !- Apply Tuesday
  Yes,                                    !- Apply Wednesday
  Yes,                                    !- Apply Thursday
  Yes,                                    !- Apply Friday
  Yes,                                    !- Apply Saturday
  DateRange,                              !- Date Specification Type
  1,                                      !- Start Month
  1,                                      !- Start Day
  12,                                     !- End Month
  31;                                     !- End Day

OS:Schedule:Day,
  {551a08a2-505c-482e-9c65-e5c75b80097f}, !- Handle
  cooling setpoint day,                   !- Name
  {7ec66a83-fb0a-4b97-bc38-4f58a3596f44}, !- Schedule Type Limits Name
  ,                                       !- Interpolate to Timestep
  24,                                     !- Hour 1
  0,                                      !- Minute 1
  25.5555555555556;                       !- Value Until Time 1

OS:ThermostatSetpoint:DualSetpoint,
  {a70298ba-d490-408b-b56f-63a62e45a94f}, !- Handle
  conditioned space temperature setpoint, !- Name
  {597c909d-66e4-4dec-a2d5-4b2582a76112}, !- Heating Setpoint Temperature Schedule Name
  {a6e4c404-d897-4d64-94e9-43b7645ed459}, !- Cooling Setpoint Temperature Schedule Name
  0;                                      !- Temperature Difference Between Cutout And Setpoint {deltaC}

OS:ScheduleTypeLimits,
  {7ec66a83-fb0a-4b97-bc38-4f58a3596f44}, !- Handle
  Temperature,                            !- Name
  ,                                       !- Lower Limit Value
  ,                                       !- Upper Limit Value
  Continuous,                             !- Numeric Type
  Temperature;                            !- Unit Type

OS:Surface,
  {b73f02a7-d4b8-42ae-8821-9cc9afee5a9d}, !- Handle
  Roof1,                                  !- Name
  RoofCeiling,                            !- Surface Type
  {0e2942a7-0641-42ca-af3b-c34a837587e0}, !- Construction Name
  {9bf7ee06-4fc9-4451-8aa0-890e69b9d793}, !- Space Name
  Outdoors,                               !- Outside Boundary Condition
  ,                                       !- Outside Boundary Condition Object
  SunExposed,                             !- Sun Exposure
  WindExposed,                            !- Wind Exposure
  ,                                       !- View Factor to Ground
  ,                                       !- Number of Vertices
  -26.9347048849634, 58.0557891618865, 2.4384, !- X,Y,Z Vertex 1 {m}
  -26.9347048849634, 46.7895631136661, 8.0715130241102, !- X,Y,Z Vertex 2 {m}
  -14.3386812381136, 46.7895631136661, 8.0715130241102, !- X,Y,Z Vertex 3 {m}
  -14.3386812381136, 58.0557891618865, 2.4384; !- X,Y,Z Vertex 4 {m}

OS:AdditionalProperties,
  {086a19b8-1433-452f-81fc-674f81efbf9e}, !- Handle
  {b73f02a7-d4b8-42ae-8821-9cc9afee5a9d}, !- Object Name
  Length,                                 !- Feature Name 1
  Double,                                 !- Feature Data Type 1
  41.325536899113608,                     !- Feature Value 1
  Width,                                  !- Feature Name 2
  Double,                                 !- Feature Data Type 2
  41.325536899113601,                     !- Feature Value 2
  Azimuth,                                !- Feature Name 3
  Integer,                                !- Feature Data Type 3
  0,                                      !- Feature Value 3
  Tilt,                                   !- Feature Name 4
  Double,                                 !- Feature Data Type 4
  0.5,                                    !- Feature Value 4
  SurfaceType,                            !- Feature Name 5
  String,                                 !- Feature Data Type 5
  Roof;                                   !- Feature Value 5

OS:ThermalZone,
  {17f8e6e2-07e4-4abb-a914-c7ef7e2d8a61}, !- Handle
  attic - vented,                         !- Name
  1,                                      !- Multiplier
  ,                                       !- Ceiling Height {m}
  356.390921899745,                       !- Volume {m3}
  ,                                       !- Floor Area {m2}
  ,                                       !- Zone Inside Convection Algorithm
  ,                                       !- Zone Outside Convection Algorithm
  ,                                       !- Zone Conditioning Equipment List Name
  {64aec170-55a6-4a6f-8a55-30681386b6dd}, !- Zone Air Inlet Port List
  {bea61eaa-7c6f-4580-a960-d18921f95fcb}, !- Zone Air Exhaust Port List
  {6e6a359d-8f19-4776-880f-b8aa7ba16167}, !- Zone Air Node Name
  {e2e83b63-d8b5-4042-8acf-ea132e090911}, !- Zone Return Air Port List
  ,                                       !- Primary Daylighting Control Name
  ,                                       !- Fraction of Zone Controlled by Primary Daylighting Control
  ,                                       !- Secondary Daylighting Control Name
  ,                                       !- Fraction of Zone Controlled by Secondary Daylighting Control
  ,                                       !- Illuminance Map Name
  ,                                       !- Group Rendering Name
  ,                                       !- Thermostat Name
  No;                                     !- Use Ideal Air Loads

OS:Node,
  {2f02319f-6db9-479a-bbb3-fe7843d50c27}, !- Handle
  Node 2,                                 !- Name
  {6e6a359d-8f19-4776-880f-b8aa7ba16167}, !- Inlet Port
  ;                                       !- Outlet Port

OS:Connection,
  {6e6a359d-8f19-4776-880f-b8aa7ba16167}, !- Handle
  {17f8e6e2-07e4-4abb-a914-c7ef7e2d8a61}, !- Source Object
  11,                                     !- Outlet Port
  {2f02319f-6db9-479a-bbb3-fe7843d50c27}, !- Target Object
  2;                                      !- Inlet Port

OS:PortList,
  {64aec170-55a6-4a6f-8a55-30681386b6dd}, !- Handle
  {17f8e6e2-07e4-4abb-a914-c7ef7e2d8a61}; !- HVAC Component

OS:PortList,
  {bea61eaa-7c6f-4580-a960-d18921f95fcb}, !- Handle
  {17f8e6e2-07e4-4abb-a914-c7ef7e2d8a61}; !- HVAC Component

OS:PortList,
  {e2e83b63-d8b5-4042-8acf-ea132e090911}, !- Handle
  {17f8e6e2-07e4-4abb-a914-c7ef7e2d8a61}; !- HVAC Component

OS:Sizing:Zone,
  {a6566766-703a-4191-87c1-8b516d74897d}, !- Handle
  {17f8e6e2-07e4-4abb-a914-c7ef7e2d8a61}, !- Zone or ZoneList Name
  SupplyAirTemperature,                   !- Zone Cooling Design Supply Air Temperature Input Method
  14,                                     !- Zone Cooling Design Supply Air Temperature {C}
  11.11,                                  !- Zone Cooling Design Supply Air Temperature Difference {deltaC}
  SupplyAirTemperature,                   !- Zone Heating Design Supply Air Temperature Input Method
  40,                                     !- Zone Heating Design Supply Air Temperature {C}
  11.11,                                  !- Zone Heating Design Supply Air Temperature Difference {deltaC}
  0.0085,                                 !- Zone Cooling Design Supply Air Humidity Ratio {kg-H2O/kg-air}
  0.008,                                  !- Zone Heating Design Supply Air Humidity Ratio {kg-H2O/kg-air}
  ,                                       !- Zone Heating Sizing Factor
  ,                                       !- Zone Cooling Sizing Factor
  DesignDay,                              !- Cooling Design Air Flow Method
  ,                                       !- Cooling Design Air Flow Rate {m3/s}
  ,                                       !- Cooling Minimum Air Flow per Zone Floor Area {m3/s-m2}
  ,                                       !- Cooling Minimum Air Flow {m3/s}
  ,                                       !- Cooling Minimum Air Flow Fraction
  DesignDay,                              !- Heating Design Air Flow Method
  ,                                       !- Heating Design Air Flow Rate {m3/s}
  ,                                       !- Heating Maximum Air Flow per Zone Floor Area {m3/s-m2}
  ,                                       !- Heating Maximum Air Flow {m3/s}
  ,                                       !- Heating Maximum Air Flow Fraction
  No,                                     !- Account for Dedicated Outdoor Air System
  NeutralSupplyAir,                       !- Dedicated Outdoor Air System Control Strategy
  autosize,                               !- Dedicated Outdoor Air Low Setpoint Temperature for Design {C}
  autosize,                               !- Dedicated Outdoor Air High Setpoint Temperature for Design {C}
  Sensible Load Only No Latent Load,      !- Zone Load Sizing Method
  HumidityRatioDifference,                !- Zone Latent Cooling Design Supply Air Humidity Ratio Input Method
  ,                                       !- Zone Dehumidification Design Supply Air Humidity Ratio {kgWater/kgDryAir}
  0.005,                                  !- Zone Cooling Design Supply Air Humidity Ratio Difference {kgWater/kgDryAir}
  HumidityRatioDifference,                !- Zone Latent Heating Design Supply Air Humidity Ratio Input Method
  ,                                       !- Zone Humidification Design Supply Air Humidity Ratio {kgWater/kgDryAir}
  0.005,                                  !- Zone Humidification Design Supply Air Humidity Ratio Difference {kgWater/kgDryAir}
  ,                                       !- Zone Humidistat Dehumidification Set Point Schedule Name
  ,                                       !- Zone Humidistat Humidification Set Point Schedule Name
  ,                                       !- Design Zone Air Distribution Effectiveness in Cooling Mode
  ,                                       !- Design Zone Air Distribution Effectiveness in Heating Mode
  ,                                       !- Design Zone Secondary Recirculation Fraction {dimensionless}
  ,                                       !- Design Minimum Zone Ventilation Efficiency {dimensionless}
  Coincident;                             !- Sizing Option

OS:ZoneHVAC:EquipmentList,
  {80ca388f-188f-4bd4-890f-43855f82ae4f}, !- Handle
  Zone HVAC Equipment List 2,             !- Name
  {17f8e6e2-07e4-4abb-a914-c7ef7e2d8a61}; !- Thermal Zone

OS:AdditionalProperties,
  {3d4c926f-8dce-48c8-9399-1219de246f49}, !- Handle
  {17f8e6e2-07e4-4abb-a914-c7ef7e2d8a61}, !- Object Name
  ObjectType,                             !- Feature Name 1
  String,                                 !- Feature Data Type 1
  attic - vented;                         !- Feature Value 1

OS:Space,
  {9bf7ee06-4fc9-4451-8aa0-890e69b9d793}, !- Handle
  attic - vented 1,                       !- Name
  ,                                       !- Space Type Name
  ,                                       !- Default Construction Set Name
  ,                                       !- Default Schedule Set Name
  ,                                       !- Direction of Relative North {deg}
  ,                                       !- X Origin {m}
  ,                                       !- Y Origin {m}
  ,                                       !- Z Origin {m}
  ,                                       !- Building Story Name
  {17f8e6e2-07e4-4abb-a914-c7ef7e2d8a61}, !- Thermal Zone Name
  ,                                       !- Part of Total Floor Area
  ,                                       !- Design Specification Outdoor Air Object Name
  ,                                       !- Building Unit Name
  356.390921899745;                       !- Volume {m3}

OS:Material,
  {9f402fdf-9b8a-4a5a-b652-b4b4fd9317b4}, !- Handle
  asphalt or fiberglass shingles,         !- Name
  Rough,                                  !- Roughness
  0.00635,                                !- Thickness {m}
  0.162714,                               !- Conductivity {W/m-K}
  1121.4,                                 !- Density {kg/m3}
  1465.45,                                !- Specific Heat {J/kg-K}
  0.9,                                    !- Thermal Absorptance
  0.85,                                   !- Solar Absorptance