
OS:Version,
  {c27474ec-743f-4f85-8aed-eade0e9f2c56}, !- Handle
  3.9.0;                                  !- Version Identifier

OS:SimulationControl,
  {4d85b755-1466-4739-beab-832e3c69a344}, !- Handle
  ,                                       !- Do Zone Sizing Calculation
  ,                                       !- Do System Sizing Calculation
  ,                                       !- Do Plant Sizing Calculation
  No;                                     !- Run Simulation for Sizing Periods

OS:Timestep,
  {c0c000a7-3cf4-4dde-8463-a73941427e89}, !- Handle
  1;                                      !- Number of Timesteps per Hour

OS:ShadowCalculation,
  {9ec673ec-8a0a-4871-af09-2f24bc2299e3}, !- Handle
  PolygonClipping,                        !- Shading Calculation Method
  ,                                       !- Shading Calculation Update Frequency Method
  20,                                     !- Shading Calculation Update Frequency
  200,                                    !- Maximum Figures in Shadow Overlap Calculations
  ,                                       !- Polygon Clipping Algorithm
  512,                                    !- Pixel Counting Resolution
  ,                                       !- Sky Diffuse Modeling Algorithm
  No,                                     !- Output External Shading Calculation Results
  No,                                     !- Disable Self-Shading Within Shading Zone Groups
  No;                                     !- Disable Self-Shading From Shading Zone Groups to Other Zones

OS:SurfaceConvectionAlgorithm:Outside,
  {312bfe0b-20cc-424c-8b94-75a1a424d541}, !- Handle
  DOE-2;                                  !- Algorithm

OS:SurfaceConvectionAlgorithm:Inside,
  {a6b24141-a579-444d-8d06-249982e45fdb}, !- Handle
  TARP;                                   !- Algorithm

OS:ZoneCapacitanceMultiplier:ResearchSpecial,
  {3d72b41c-ea87-49c7-bdfa-409049cf2e4c}, !- Handle
  7,                                      !- Temperature Capacity Multiplier
  15,                                     !- Humidity Capacity Multiplier
  ;                                       !- Carbon Dioxide Capacity Multiplier

OS:ConvergenceLimits,
  {5eb6e455-0f22-4c5b-89b8-931226feeb9d}, !- Handle
  0;                                      !- Minimum System Timestep {minutes}

OS:RunPeriod,
  {022a1119-9954-42fb-a621-0c5821739174}, !- Handle
  Run Period 1,                           !- Name
  1,                                      !- Begin Month
  1,                                      !- Begin Day of Month
  12,                                     !- End Month
  31,                                     !- End Day of Month
  ,                                       !- Use Weather File Holidays and Special Days
  ,                                       !- Use Weather File Daylight Saving Period
  ,                                       !- Apply Weekend Holiday Rule
  ,                                       !- Use Weather File Rain Indicators
  ,                                       !- Use Weather File Snow Indicators
  ;                                       !- Number of Times Runperiod to be Repeated

OS:PerformancePrecisionTradeoffs,
  {a0a8f861-3641-4f5c-b6c4-78a8d6f122ab}, !- Handle
  ,                                       !- Use Coil Direct Solutions
  CarrollMRT;                             !- Zone Radiant Exchange Algorithm

OS:WeatherFile,
  {10d3249e-281e-40da-a250-0bbb7405c562}, !- Handle
  Buffalo Niagara Intl Ap,                !- City
  NY,                                     !- State Province Region
  USA,                                    !- Country
  TMY3,                                   !- Data Source
  725280,                                 !- WMO Number
  42.93,                                  !- Latitude {deg}
  -78.73,                                 !- Longitude {deg}
  -5,                                     !- Time Zone {hr}
  215,                                    !- Elevation {m}
  /Users/nmoore/github/urbanopt-example-geojson-project/example_project/weather/USA_NY_Buffalo-Greater.Buffalo.Intl.AP.725280_TMY3.epw, !- Url
  6B50E0FF,                               !- Checksum
  ,                                       !- Start Date Actual Year
  Sunday;                                 !- Start Day of Week

OS:YearDescription,
  {1c6467bb-5bdd-4380-92fd-9170c473da4a}, !- Handle
  2007,                                   !- Calendar Year
  ,                                       !- Day of Week for Start Day
  ;                                       !- Is Leap Year

OS:Site,
  {68478a35-3c7a-4ab6-bb1a-b5f0eacbdca8}, !- Handle
  Buffalo Niagara Intl Ap_NY,             !- Name
  42.93,                                  !- Latitude {deg}
  -78.73,                                 !- Longitude {deg}
  -5,                                     !- Time Zone {hr}
  215,                                    !- Elevation {m}
  Suburbs,                                !- Terrain
  Yes;                                    !- Keep Site Location Information

OS:RunPeriodControl:DaylightSavingTime,
  {e473d4c2-7094-4f43-8d35-68113584d907}, !- Handle
  Mar 12,                                 !- Start Date
  Nov 5;                                  !- End Date

OS:Site:GroundTemperature:Shallow,
  {06e6aacc-5e41-488d-8106-7bcfd3b2e285}, !- Handle
  4.30207395723828,                       !- January Surface Ground Temperature {C}
  2.29327249652502,                       !- February Surface Ground Temperature {C}
  2.13240047156047,                       !- March Surface Ground Temperature {C}
  3.08567940719286,                       !- April Surface Ground Temperature {C}
  6.91256312497526,                       !- May Surface Ground Temperature {C}
  10.7216195949507,                       !- June Surface Ground Temperature {C}
  14.0238679822574,                       !- July Surface Ground Temperature {C}
  16.1157611184724,                       !- August Surface Ground Temperature {C}
  16.2934789303462,                       !- September Surface Ground Temperature {C}
  14.5920754632847,                       !- October Surface Ground Temperature {C}
  11.374036348653,                        !- November Surface Ground Temperature {C}
  7.68182621661674;                       !- December Surface Ground Temperature {C}

OS:ThermalZone,
  {9f4ddce3-4a96-4986-ab51-e47559874db3}, !- Handle
  conditioned space,                      !- Name
  1,                                      !- Multiplier
  ,                                       !- Ceiling Height {m}
  692.06373070848,                        !- Volume {m3}
  ,                                       !- Floor Area {m2}
  ,                                       !- Zone Inside Convection Algorithm
  ,                                       !- Zone Outside Convection Algorithm
  ,                                       !- Zone Conditioning Equipment List Name
  {1f72f23d-4e95-4456-8b14-903a420fa750}, !- Zone Air Inlet Port List
  {a07c9157-395c-4e7f-960a-a1af6bb92f1f}, !- Zone Air Exhaust Port List
  {21f4f782-24c9-44f5-bbf1-6127cef5d9be}, !- Zone Air Node Name
  {bfeff1d7-5ccf-43a3-9fb2-dd71bfd47d67}, !- Zone Return Air Port List
  ,                                       !- Primary Daylighting Control Name
  ,                                       !- Fraction of Zone Controlled by Primary Daylighting Control
  ,                                       !- Secondary Daylighting Control Name
  ,                                       !- Fraction of Zone Controlled by Secondary Daylighting Control
  ,                                       !- Illuminance Map Name
  ,                                       !- Group Rendering Name
  {e7f31165-329c-47cc-b906-75e0fcd6820c}, !- Thermostat Name
  No;                                     !- Use Ideal Air Loads

OS:Node,
  {5c014339-6e66-42bc-bc1f-34646ef53c4b}, !- Handle
  Node 1,                                 !- Name
  {21f4f782-24c9-44f5-bbf1-6127cef5d9be}, !- Inlet Port
  ;                                       !- Outlet Port

OS:Connection,
  {21f4f782-24c9-44f5-bbf1-6127cef5d9be}, !- Handle
  {9f4ddce3-4a96-4986-ab51-e47559874db3}, !- Source Object
  11,                                     !- Outlet Port
  {5c014339-6e66-42bc-bc1f-34646ef53c4b}, !- Target Object
  2;                                      !- Inlet Port

OS:PortList,
  {1f72f23d-4e95-4456-8b14-903a420fa750}, !- Handle
  {9f4ddce3-4a96-4986-ab51-e47559874db3}, !- HVAC Component
  {7dac8c95-7eba-4a14-9e39-d78026c469da}; !- Port 1

OS:PortList,
  {a07c9157-395c-4e7f-960a-a1af6bb92f1f}, !- Handle
  {9f4ddce3-4a96-4986-ab51-e47559874db3}; !- HVAC Component

OS:PortList,
  {bfeff1d7-5ccf-43a3-9fb2-dd71bfd47d67}, !- Handle
  {9f4ddce3-4a96-4986-ab51-e47559874db3}, !- HVAC Component
  {243b211a-3353-4fc1-bc97-1fc501c26d40}; !- Port 1

OS:Sizing:Zone,
  {47eeb130-5563-4a93-a656-6a80490c67f8}, !- Handle
  {9f4ddce3-4a96-4986-ab51-e47559874db3}, !- Zone or ZoneList Name
  SupplyAirTemperature,                   !- Zone Cooling Design Supply Air Temperature Input Method
  14,                                     !- Zone Cooling Design Supply Air Temperature {C}
  11.11,                                  !- Zone Cooling Design Supply Air Temperature Difference {deltaC}
  SupplyAirTemperature,                   !- Zone Heating Design Supply Air Temperature Input Method
  40,                                     !- Zone Heating Design Supply Air Temperature {C}
  11.11,                                  !- Zone Heating Design Supply Air Temperature Difference {deltaC}
  0.0085,                                 !- Zone Cooling Design Supply Air Humidity Ratio {kg-H2O/kg-air}
  0.008,                                  !- Zone Heating Design Supply Air Humidity Ratio {kg-H2O/kg-air}
  ,                                       !- Zone Heating Sizing Factor
  ,                                       !- Zone Cooling Sizing Factor
  DesignDay,                              !- Cooling Design Air Flow Method
  ,                                       !- Cooling Design Air Flow Rate {m3/s}
  ,                                       !- Cooling Minimum Air Flow per Zone Floor Area {m3/s-m2}
  ,                                       !- Cooling Minimum Air Flow {m3/s}
  ,                                       !- Cooling Minimum Air Flow Fraction
  DesignDay,                              !- Heating Design Air Flow Method
  ,                                       !- Heating Design Air Flow Rate {m3/s}
  ,                                       !- Heating Maximum Air Flow per Zone Floor Area {m3/s-m2}
  ,                                       !- Heating Maximum Air Flow {m3/s}
  ,                                       !- Heating Maximum Air Flow Fraction
  No,                                     !- Account for Dedicated Outdoor Air System
  NeutralSupplyAir,                       !- Dedicated Outdoor Air System Control Strategy
  autosize,                               !- Dedicated Outdoor Air Low Setpoint Temperature for Design {C}
  autosize,                               !- Dedicated Outdoor Air High Setpoint Temperature for Design {C}
  Sensible Load Only No Latent Load,      !- Zone Load Sizing Method
  HumidityRatioDifference,                !- Zone Latent Cooling Design Supply Air Humidity Ratio Input Method
  ,                                       !- Zone Dehumidification Design Supply Air Humidity Ratio {kgWater/kgDryAir}
  0.005,                                  !- Zone Cooling Design Supply Air Humidity Ratio Difference {kgWater/kgDryAir}
  HumidityRatioDifference,                !- Zone Latent Heating Design Supply Air Humidity Ratio Input Method
  ,                                       !- Zone Humidification Design Supply Air Humidity Ratio {kgWater/kgDryAir}
  0.005,                                  !- Zone Humidification Design Supply Air Humidity Ratio Difference {kgWater/kgDryAir}
  ,                                       !- Zone Humidistat Dehumidification Set Point Schedule Name
  ,                                       !- Zone Humidistat Humidification Set Point Schedule Name
  ,                                       !- Design Zone Air Distribution Effectiveness in Cooling Mode
  ,                                       !- Design Zone Air Distribution Effectiveness in Heating Mode
  ,                                       !- Design Zone Secondary Recirculation Fraction {dimensionless}
  ,                                       !- Design Minimum Zone Ventilation Efficiency {dimensionless}
  Coincident;                             !- Sizing Option

OS:ZoneHVAC:EquipmentList,
  {0cc6c7b7-edfe-4191-99f2-1468c8d528df}, !- Handle
  Zone HVAC Equipment List 1,             !- Name
  {9f4ddce3-4a96-4986-ab51-e47559874db3}, !- Thermal Zone
  ,                                       !- Load Distribution Scheme
  {1bd9cd2e-51ea-40fa-a9ac-bd49a0707345}, !- Zone Equipment 1
  1,                                      !- Zone Equipment Cooling Sequence 1
  1,                                      !- Zone Equipment Heating or No-Load Sequence 1
  {875a36f4-11ec-45a0-a9b0-2482771754e9}, !- Zone Equipment Sequential Cooling Fraction Schedule Name 1
  {238ccfec-acc1-4725-b47a-9dff65c9ac13}; !- Zone Equipment Sequential Heating Fraction Schedule Name 1

OS:AdditionalProperties,
  {6a51e787-f38e-441b-b3ec-8a013900ebf7}, !- Handle
  {9f4ddce3-4a96-4986-ab51-e47559874db3}, !- Object Name
  ObjectType,                             !- Feature Name 1
  String,                                 !- Feature Data Type 1
  conditioned space;                      !- Feature Value 1

OS:Space,
  {e2837615-60e5-45a6-927b-fb01d0094893}, !- Handle
  conditioned space 1,                    !- Name
  ,                                       !- Space Type Name
  ,                                       !- Default Construction Set Name
  ,                                       !- Default Schedule Set Name
  ,                                       !- Direction of Relative North {deg}
  ,                                       !- X Origin {m}
  ,                                       !- Y Origin {m}
  ,                                       !- Z Origin {m}
  ,                                       !- Building Story Name
  {9f4ddce3-4a96-4986-ab51-e47559874db3}, !- Thermal Zone Name
  ,                                       !- Part of Total Floor Area
  ,                                       !- Design Specification Outdoor Air Object Name
  ,                                       !- Building Unit Name
  692.06373070848;                        !- Volume {m3}

OS:Schedule:Ruleset,
  {6e9eb7ed-fff8-4b7b-9058-05f0ea20b505}, !- Handle
  heating setpoint,                       !- Name
  {b1b96bc3-46e8-417a-9a0a-c94f12a7038c}, !- Schedule Type Limits Name
  {a7ef06bd-4443-4c77-b0c4-20128c049f1b}; !- Default Day Schedule Name

OS:Schedule:Day,
  {a7ef06bd-4443-4c77-b0c4-20128c049f1b}, !- Handle
  heating setpoint default day,           !- Name
  {b1b96bc3-46e8-417a-9a0a-c94f12a7038c}, !- Schedule Type Limits Name
  ,                                       !- Interpolate to Timestep
  24,                                     !- Hour 1
  0,                                      !- Minute 1
  0;                                      !- Value Until Time 1

OS:Schedule:Rule,
  {4bda6dd9-3060-4036-a47a-8d3f00754f19}, !- Handle
  heating setpoint allday rule,           !- Name
  {6e9eb7ed-fff8-4b7b-9058-05f0ea20b505}, !- Schedule Ruleset Name
  0,                                      !- Rule Order
  {36dc1408-879f-4517-9dce-4a9ce0a6081f}, !- Day Schedule Name
  Yes,                                    !- Apply Sunday
  Yes,                                    !- Apply Monday
  Yes,                                    !- Apply Tuesday
  Yes,                                    !- Apply Wednesday
  Yes,                                    !- Apply Thursday
  Yes,                                    !- Apply Friday
  Yes,                                    !- Apply Saturday
  DateRange,                              !- Date Specification Type
  1,                                      !- Start Month
  1,                                      !- Start Day
  12,                                     !- End Month
  31;                                     !- End Day

OS:Schedule:Day,
  {36dc1408-879f-4517-9dce-4a9ce0a6081f}, !- Handle
  heating setpoint day,                   !- Name
  {b1b96bc3-46e8-417a-9a0a-c94f12a7038c}, !- Schedule Type Limits Name
  ,                                       !- Interpolate to Timestep
  24,                                     !- Hour 1
  0,                                      !- Minute 1
  20;                                     !- Value Until Time 1

OS:Schedule:Ruleset,
  {c0d3d4be-45f3-4934-adec-a7e9ecc4cf6a}, !- Handle
  cooling setpoint,                       !- Name
  {b1b96bc3-46e8-417a-9a0a-c94f12a7038c}, !- Schedule Type Limits Name
  {59167336-0e10-435a-98c2-035c14a13b63}; !- Default Day Schedule Name

OS:Schedule:Day,
  {59167336-0e10-435a-98c2-035c14a13b63}, !- Handle
  cooling setpoint default day,           !- Name
  {b1b96bc3-46e8-417a-9a0a-c94f12a7038c}, !- Schedule Type Limits Name
  ,                                       !- Interpolate to Timestep
  24,                                     !- Hour 1
  0,                                      !- Minute 1
  0;                                      !- Value Until Time 1

OS:Schedule:Rule,
  {6774c538-10a0-4523-81ab-87943dd1445a}, !- Handle
  cooling setpoint allday rule,           !- Name
  {c0d3d4be-45f3-4934-adec-a7e9ecc4cf6a}, !- Schedule Ruleset Name
  0,                                      !- Rule Order
  {be0219aa-0f31-40e2-b221-bf8c23128813}, !- Day Schedule Name
  Yes,                                    !- Apply Sunday
  Yes,                                    !- Apply Monday
  Yes,                                    !- Apply Tuesday
  Yes,                                    !- Apply Wednesday
  Yes,                                    !- Apply Thursday
  Yes,                                    !- Apply Friday
  Yes,                                    !- Apply Saturday
  DateRange,                              !- Date Specification Type
  1,                                      !- Start Month
  1,                                      !- Start Day
  12,                                     !- End Month
  31;                                     !- End Day

OS:Schedule:Day,
  {be0219aa-0f31-40e2-b221-bf8c23128813}, !- Handle
  cooling setpoint day,                   !- Name
  {b1b96bc3-46e8-417a-9a0a-c94f12a7038c}, !- Schedule Type Limits Name
  ,                                       !- Interpolate to Timestep
  24,                                     !- Hour 1
  0,                                      !- Minute 1
  25.5555555555556;                       !- Value Until Time 1

OS:ThermostatSetpoint:DualSetpoint,
  {e7f31165-329c-47cc-b906-75e0fcd6820c}, !- Handle
  conditioned space temperature setpoint, !- Name
  {6e9eb7ed-fff8-4b7b-9058-05f0ea20b505}, !- Heating Setpoint Temperature Schedule Name
  {c0d3d4be-45f3-4934-adec-a7e9ecc4cf6a}, !- Cooling Setpoint Temperature Schedule Name
  0;                                      !- Temperature Difference Between Cutout And Setpoint {deltaC}

OS:ScheduleTypeLimits,
  {b1b96bc3-46e8-417a-9a0a-c94f12a7038c}, !- Handle
  Temperature,                            !- Name
  ,                                       !- Lower Limit Value
  ,                                       !- Upper Limit Value
  Continuous,                             !- Numeric Type
  Temperature;                            !- Unit Type

OS:Surface,
  {1341f2c9-9967-404d-a16f-7c1a40902294}, !- Handle
  Roof1,                                  !- Name
  RoofCeiling,                            !- Surface Type
  {d335d872-d1f3-44e1-b838-bcf4ebcf5ee3}, !- Construction Name
  {ec08da0b-2829-441f-96b4-046a59a212e6}, !- Space Name
  Outdoors,                               !- Outside Boundary Condition
  ,                                       !- Outside Boundary Condition Object
  SunExposed,                             !- Sun Exposure
  WindExposed,                            !- Wind Exposure
  ,                                       !- View Factor to Ground
  ,                                       !- Number of Vertices
  -26.9347048849634, 58.0557891618865, 2.4384, !- X,Y,Z Vertex 1 {m}
  -26.9347048849634, 46.7895631136661, 8.0715130241102, !- X,Y,Z Vertex 2 {m}
  -14.3386812381136, 46.7895631136661, 8.0715130241102, !- X,Y,Z Vertex 3 {m}
  -14.3386812381136, 58.0557891618865, 2.4384; !- X,Y,Z Vertex 4 {m}

OS:AdditionalProperties,
  {1300caed-5e42-4c53-85bb-1b9d010c2b0d}, !- Handle
  {1341f2c9-9967-404d-a16f-7c1a40902294}, !- Object Name
  Length,                                 !- Feature Name 1
  Double,                                 !- Feature Data Type 1
  41.325536899113608,                     !- Feature Value 1
  Width,                                  !- Feature Name 2
  Double,                                 !- Feature Data Type 2
  41.325536899113601,                     !- Feature Value 2
  Azimuth,                                !- Feature Name 3
  Integer,                                !- Feature Data Type 3
  0,                                      !- Feature Value 3
  Tilt,                                   !- Feature Name 4
  Double,                                 !- Feature Data Type 4
  0.5,                                    !- Feature Value 4
  SurfaceType,                            !- Feature Name 5
  String,                                 !- Feature Data Type 5
  Roof;                                   !- Feature Value 5

OS:ThermalZone,
  {054deca9-ec18-4a1b-a5f5-4eef434debd1}, !- Handle
  attic - vented,                         !- Name
  1,                                      !- Multiplier
  ,                                       !- Ceiling Height {m}
  356.389957095237,                       !- Volume {m3}
  ,                                       !- Floor Area {m2}
  ,                                       !- Zone Inside Convection Algorithm
  ,                                       !- Zone Outside Convection Algorithm
  ,                                       !- Zone Conditioning Equipment List Name
  {3d2e4a5e-182d-4a30-9f8c-6bda6fb5163d}, !- Zone Air Inlet Port List
  {2ff115b1-d9f3-4588-8a76-2d7960e2dc69}, !- Zone Air Exhaust Port List
  {0261b2a9-8f76-4339-b89a-d62bca34f638}, !- Zone Air Node Name
  {a4e6e254-fdc4-4f30-b0fd-40b95ebba3cd}, !- Zone Return Air Port List
  ,                                       !- Primary Daylighting Control Name
  ,                                       !- Fraction of Zone Controlled by Primary Daylighting Control
  ,                                       !- Secondary Daylighting Control Name
  ,                                       !- Fraction of Zone Controlled by Secondary Daylighting Control
  ,                                       !- Illuminance Map Name
  ,                                       !- Group Rendering Name
  ,                                       !- Thermostat Name
  No;                                     !- Use Ideal Air Loads

OS:Node,
  {a4e2499d-219c-4940-bbf6-8ecf64c889c8}, !- Handle
  Node 2,                                 !- Name
  {0261b2a9-8f76-4339-b89a-d62bca34f638}, !- Inlet Port
  ;                                       !- Outlet Port

OS:Connection,
  {0261b2a9-8f76-4339-b89a-d62bca34f638}, !- Handle
  {054deca9-ec18-4a1b-a5f5-4eef434debd1}, !- Source Object
  11,                                     !- Outlet Port
  {a4e2499d-219c-4940-bbf6-8ecf64c889c8}, !- Target Object
  2;                                      !- Inlet Port

OS:PortList,
  {3d2e4a5e-182d-4a30-9f8c-6bda6fb5163d}, !- Handle
  {054deca9-ec18-4a1b-a5f5-4eef434debd1}; !- HVAC Component

OS:PortList,
  {2ff115b1-d9f3-4588-8a76-2d7960e2dc69}, !- Handle
  {054deca9-ec18-4a1b-a5f5-4eef434debd1}; !- HVAC Component

OS:PortList,
  {a4e6e254-fdc4-4f30-b0fd-40b95ebba3cd}, !- Handle
  {054deca9-ec18-4a1b-a5f5-4eef434debd1}; !- HVAC Component

OS:Sizing:Zone,
  {fdec8538-6ffe-47ec-ab78-b06e13576f4d}, !- Handle
  {054deca9-ec18-4a1b-a5f5-4eef434debd1}, !- Zone or ZoneList Name
  SupplyAirTemperature,                   !- Zone Cooling Design Supply Air Temperature Input Method
  14,                                     !- Zone Cooling Design Supply Air Temperature {C}
  11.11,                                  !- Zone Cooling Design Supply Air Temperature Difference {deltaC}
  SupplyAirTemperature,                   !- Zone Heating Design Supply Air Temperature Input Method
  40,                                     !- Zone Heating Design Supply Air Temperature {C}
  11.11,                                  !- Zone Heating Design Supply Air Temperature Difference {deltaC}
  0.0085,                                 !- Zone Cooling Design Supply Air Humidity Ratio {kg-H2O/kg-air}
  0.008,                                  !- Zone Heating Design Supply Air Humidity Ratio {kg-H2O/kg-air}
  ,                                       !- Zone Heating Sizing Factor
  ,                                       !- Zone Cooling Sizing Factor
  DesignDay,                              !- Cooling Design Air Flow Method
  ,                                       !- Cooling Design Air Flow Rate {m3/s}
  ,                                       !- Cooling Minimum Air Flow per Zone Floor Area {m3/s-m2}
  ,                                       !- Cooling Minimum Air Flow {m3/s}
  ,                                       !- Cooling Minimum Air Flow Fraction
  DesignDay,                              !- Heating Design Air Flow Method
  ,                                       !- Heating Design Air Flow Rate {m3/s}
  ,                                       !- Heating Maximum Air Flow per Zone Floor Area {m3/s-m2}
  ,                                       !- Heating Maximum Air Flow {m3/s}
  ,                                       !- Heating Maximum Air Flow Fraction
  No,                                     !- Account for Dedicated Outdoor Air System
  NeutralSupplyAir,                       !- Dedicated Outdoor Air System Control Strategy
  autosize,                               !- Dedicated Outdoor Air Low Setpoint Temperature for Design {C}
  autosize,                               !- Dedicated Outdoor Air High Setpoint Temperature for Design {C}
  Sensible Load Only No Latent Load,      !- Zone Load Sizing Method
  HumidityRatioDifference,                !- Zone Latent Cooling Design Supply Air Humidity Ratio Input Method
  ,                                       !- Zone Dehumidification Design Supply Air Humidity Ratio {kgWater/kgDryAir}
  0.005,                                  !- Zone Cooling Design Supply Air Humidity Ratio Difference {kgWater/kgDryAir}
  HumidityRatioDifference,                !- Zone Latent Heating Design Supply Air Humidity Ratio Input Method
  ,                                       !- Zone Humidification Design Supply Air Humidity Ratio {kgWater/kgDryAir}
  0.005,                                  !- Zone Humidification Design Supply Air Humidity Ratio Difference {kgWater/kgDryAir}
  ,                                       !- Zone Humidistat Dehumidification Set Point Schedule Name
  ,                                       !- Zone Humidistat Humidification Set Point Schedule Name
  ,                                       !- Design Zone Air Distribution Effectiveness in Cooling Mode
  ,                                       !- Design Zone Air Distribution Effectiveness in Heating Mode
  ,                                       !- Design Zone Secondary Recirculation Fraction {dimensionless}
  ,                                       !- Design Minimum Zone Ventilation Efficiency {dimensionless}
  Coincident;                             !- Sizing Option

OS:ZoneHVAC:EquipmentList,
  {14e3a6ec-4dfd-496a-9b1c-2c7a99fdf52c}, !- Handle
  Zone HVAC Equipment List 2,             !- Name
  {054deca9-ec18-4a1b-a5f5-4eef434debd1}; !- Thermal Zone

OS:AdditionalProperties,
  {eaad4aff-5185-4e2b-a4bf-dfb00eec8f37}, !- Handle
  {054deca9-ec18-4a1b-a5f5-4eef434debd1}, !- Object Name
  ObjectType,                             !- Feature Name 1
  String,                                 !- Feature Data Type 1
  attic - vented;                         !- Feature Value 1

OS:Space,
  {ec08da0b-2829-441f-96b4-046a59a212e6}, !- Handle
  attic - vented 1,                       !- Name
  ,                                       !- Space Type Name
  ,                                       !- Default Construction Set Name
  ,                                       !- Default Schedule Set Name
  ,                                       !- Direction of Relative North {deg}
  ,                                       !- X Origin {m}
  ,                                       !- Y Origin {m}
  ,                                       !- Z Origin {m}
  ,                                       !- Building Story Name
  {054deca9-ec18-4a1b-a5f5-4eef434debd1}, !- Thermal Zone Name
  ,                                       !- Part of Total Floor Area
  ,                                       !- Design Specification Outdoor Air Object Name
  ,                                       !- Building Unit Name
  356.389957095237;                       !- Volume {m3}

OS:Material,
  {a1b5f495-b799-4a95-b365-9812be7c21e2}, !- Handle
  asphalt or fiberglass shingles,         !- Name
  Rough,                                  !- Roughness
  0.00635,                                !- Thickness {m}
  0.162714,                               !- Conductivity {W/m-K}
  1121.4,                                 !- Density {kg/m3}
  1465.45,                                !- Specific Heat {J/kg-K}
  0.9,                                    !- Thermal Absorptance
  0.85,                                   !- Solar Absorptance