
OS:Version,
  {ddc1783c-9030-4802-a853-f6346e7217b2}, !- Handle
  3.9.0;                                  !- Version Identifier

OS:SimulationControl,
  {88ee4a4f-a0cf-4759-a364-3126bcf00000}, !- Handle
  ,                                       !- Do Zone Sizing Calculation
  ,                                       !- Do System Sizing Calculation
  ,                                       !- Do Plant Sizing Calculation
  No;                                     !- Run Simulation for Sizing Periods

OS:Timestep,
  {c0799112-6f2f-44b6-8252-84bc614de93b}, !- Handle
  1;                                      !- Number of Timesteps per Hour

OS:ShadowCalculation,
  {35e03caa-34a8-4800-8f6a-0de71812a388}, !- Handle
  PolygonClipping,                        !- Shading Calculation Method
  ,                                       !- Shading Calculation Update Frequency Method
  20,                                     !- Shading Calculation Update Frequency
  200,                                    !- Maximum Figures in Shadow Overlap Calculations
  ,                                       !- Polygon Clipping Algorithm
  512,                                    !- Pixel Counting Resolution
  ,                                       !- Sky Diffuse Modeling Algorithm
  No,                                     !- Output External Shading Calculation Results
  No,                                     !- Disable Self-Shading Within Shading Zone Groups
  No;                                     !- Disable Self-Shading From Shading Zone Groups to Other Zones

OS:SurfaceConvectionAlgorithm:Outside,
  {1817ed62-8be5-481b-80f8-6e66a614bebe}, !- Handle
  DOE-2;                                  !- Algorithm

OS:SurfaceConvectionAlgorithm:Inside,
  {0206fbf7-2de6-45a8-9525-09c4f2c57062}, !- Handle
  TARP;                                   !- Algorithm

OS:ZoneCapacitanceMultiplier:ResearchSpecial,
  {1d701356-fb55-490e-a009-b9fb5cfba020}, !- Handle
  7,                                      !- Temperature Capacity Multiplier
  15,                                     !- Humidity Capacity Multiplier
  ;                                       !- Carbon Dioxide Capacity Multiplier

OS:ConvergenceLimits,
  {a6262de4-a537-4fd5-9b96-56d1e5970752}, !- Handle
  0;                                      !- Minimum System Timestep {minutes}

OS:RunPeriod,
  {c182c20e-ee99-456b-8db7-7af06880eebf}, !- Handle
  Run Period 1,                           !- Name
  1,                                      !- Begin Month
  1,                                      !- Begin Day of Month
  12,                                     !- End Month
  31,                                     !- End Day of Month
  ,                                       !- Use Weather File Holidays and Special Days
  ,                                       !- Use Weather File Daylight Saving Period
  ,                                       !- Apply Weekend Holiday Rule
  ,                                       !- Use Weather File Rain Indicators
  ,                                       !- Use Weather File Snow Indicators
  ;                                       !- Number of Times Runperiod to be Repeated

OS:PerformancePrecisionTradeoffs,
  {5f0bad76-6a91-4c01-b389-59a429427863}, !- Handle
  ,                                       !- Use Coil Direct Solutions
  CarrollMRT;                             !- Zone Radiant Exchange Algorithm

OS:WeatherFile,
  {b530d764-15db-4eb3-96cd-7fd1f9434b97}, !- Handle
  Buffalo Niagara Intl Ap,                !- City
  NY,                                     !- State Province Region
  USA,                                    !- Country
  TMY3,                                   !- Data Source
  725280,                                 !- WMO Number
  42.93,                                  !- Latitude {deg}
  -78.73,                                 !- Longitude {deg}
  -5,                                     !- Time Zone {hr}
  215,                                    !- Elevation {m}
  /Users/nmoore/github/urbanopt-example-geojson-project/example_project/weather/USA_NY_Buffalo-Greater.Buffalo.Intl.AP.725280_TMY3.epw, !- Url
  6B50E0FF,                               !- Checksum
  ,                                       !- Start Date Actual Year
  Sunday;                                 !- Start Day of Week

OS:YearDescription,
  {d568b435-6f4e-445e-aeb0-a34498202bc4}, !- Handle
  2007,                                   !- Calendar Year
  ,                                       !- Day of Week for Start Day
  ;                                       !- Is Leap Year

OS:Site,
  {995aa47e-256f-46e9-9c84-b4177105d530}, !- Handle
  Buffalo Niagara Intl Ap_NY,             !- Name
  42.93,                                  !- Latitude {deg}
  -78.73,                                 !- Longitude {deg}
  -5,                                     !- Time Zone {hr}
  215,                                    !- Elevation {m}
  Suburbs,                                !- Terrain
  Yes;                                    !- Keep Site Location Information

OS:RunPeriodControl:DaylightSavingTime,
  {5fdf40af-0150-4703-96e0-d074b5d20910}, !- Handle
  Mar 12,                                 !- Start Date
  Nov 5;                                  !- End Date

OS:Site:GroundTemperature:Shallow,
  {060619f0-694c-45bf-93b0-e7b5de26735a}, !- Handle
  4.30207395723828,                       !- January Surface Ground Temperature {C}
  2.29327249652502,                       !- February Surface Ground Temperature {C}
  2.13240047156047,                       !- March Surface Ground Temperature {C}
  3.08567940719286,                       !- April Surface Ground Temperature {C}
  6.91256312497526,                       !- May Surface Ground Temperature {C}
  10.7216195949507,                       !- June Surface Ground Temperature {C}
  14.0238679822574,                       !- July Surface Ground Temperature {C}
  16.1157611184724,                       !- August Surface Ground Temperature {C}
  16.2934789303462,                       !- September Surface Ground Temperature {C}
  14.5920754632847,                       !- October Surface Ground Temperature {C}
  11.374036348653,                        !- November Surface Ground Temperature {C}
  7.68182621661674;                       !- December Surface Ground Temperature {C}

OS:ThermalZone,
  {f7e19fe3-36ff-456b-b4f4-8ad1b6b53b3c}, !- Handle
  conditioned space,                      !- Name
  1,                                      !- Multiplier
  ,                                       !- Ceiling Height {m}
  692.06373070848,                        !- Volume {m3}
  ,                                       !- Floor Area {m2}
  ,                                       !- Zone Inside Convection Algorithm
  ,                                       !- Zone Outside Convection Algorithm
  ,                                       !- Zone Conditioning Equipment List Name
  {435789b8-e561-454d-ba08-0baf80e98c30}, !- Zone Air Inlet Port List
  {5773b6eb-ad1d-427c-9335-909d4d1b4d24}, !- Zone Air Exhaust Port List
  {52129ed6-2e63-4d06-8f42-b97d0d961994}, !- Zone Air Node Name
  {8ac4d12d-4b34-4907-9a0c-d394345b4c41}, !- Zone Return Air Port List
  ,                                       !- Primary Daylighting Control Name
  ,                                       !- Fraction of Zone Controlled by Primary Daylighting Control
  ,                                       !- Secondary Daylighting Control Name
  ,                                       !- Fraction of Zone Controlled by Secondary Daylighting Control
  ,                                       !- Illuminance Map Name
  ,                                       !- Group Rendering Name
  {dceeeee6-6929-40e1-91d9-3edb2de281c5}, !- Thermostat Name
  No;                                     !- Use Ideal Air Loads

OS:Node,
  {12b6feeb-bbee-4723-8aff-8fcc9e8a5423}, !- Handle
  Node 1,                                 !- Name
  {52129ed6-2e63-4d06-8f42-b97d0d961994}, !- Inlet Port
  ;                                       !- Outlet Port

OS:Connection,
  {52129ed6-2e63-4d06-8f42-b97d0d961994}, !- Handle
  {f7e19fe3-36ff-456b-b4f4-8ad1b6b53b3c}, !- Source Object
  11,                                     !- Outlet Port
  {12b6feeb-bbee-4723-8aff-8fcc9e8a5423}, !- Target Object
  2;                                      !- Inlet Port

OS:PortList,
  {435789b8-e561-454d-ba08-0baf80e98c30}, !- Handle
  {f7e19fe3-36ff-456b-b4f4-8ad1b6b53b3c}, !- HVAC Component
  {a8d230fa-fc87-4f96-ae60-40e1fc674fcb}; !- Port 1

OS:PortList,
  {5773b6eb-ad1d-427c-9335-909d4d1b4d24}, !- Handle
  {f7e19fe3-36ff-456b-b4f4-8ad1b6b53b3c}; !- HVAC Component

OS:PortList,
  {8ac4d12d-4b34-4907-9a0c-d394345b4c41}, !- Handle
  {f7e19fe3-36ff-456b-b4f4-8ad1b6b53b3c}, !- HVAC Component
  {6b0c52f0-8023-453a-9f2c-4a3bf3fe86d6}; !- Port 1

OS:Sizing:Zone,
  {fc762875-1cc5-44dd-b7a7-6c6399bfd320}, !- Handle
  {f7e19fe3-36ff-456b-b4f4-8ad1b6b53b3c}, !- Zone or ZoneList Name
  SupplyAirTemperature,                   !- Zone Cooling Design Supply Air Temperature Input Method
  14,                                     !- Zone Cooling Design Supply Air Temperature {C}
  11.11,                                  !- Zone Cooling Design Supply Air Temperature Difference {deltaC}
  SupplyAirTemperature,                   !- Zone Heating Design Supply Air Temperature Input Method
  40,                                     !- Zone Heating Design Supply Air Temperature {C}
  11.11,                                  !- Zone Heating Design Supply Air Temperature Difference {deltaC}
  0.0085,                                 !- Zone Cooling Design Supply Air Humidity Ratio {kg-H2O/kg-air}
  0.008,                                  !- Zone Heating Design Supply Air Humidity Ratio {kg-H2O/kg-air}
  ,                                       !- Zone Heating Sizing Factor
  ,                                       !- Zone Cooling Sizing Factor
  DesignDay,                              !- Cooling Design Air Flow Method
  ,                                       !- Cooling Design Air Flow Rate {m3/s}
  ,                                       !- Cooling Minimum Air Flow per Zone Floor Area {m3/s-m2}
  ,                                       !- Cooling Minimum Air Flow {m3/s}
  ,                                       !- Cooling Minimum Air Flow Fraction
  DesignDay,                              !- Heating Design Air Flow Method
  ,                                       !- Heating Design Air Flow Rate {m3/s}
  ,                                       !- Heating Maximum Air Flow per Zone Floor Area {m3/s-m2}
  ,                                       !- Heating Maximum Air Flow {m3/s}
  ,                                       !- Heating Maximum Air Flow Fraction
  No,                                     !- Account for Dedicated Outdoor Air System
  NeutralSupplyAir,                       !- Dedicated Outdoor Air System Control Strategy
  autosize,                               !- Dedicated Outdoor Air Low Setpoint Temperature for Design {C}
  autosize,                               !- Dedicated Outdoor Air High Setpoint Temperature for Design {C}
  Sensible Load Only No Latent Load,      !- Zone Load Sizing Method
  HumidityRatioDifference,                !- Zone Latent Cooling Design Supply Air Humidity Ratio Input Method
  ,                                       !- Zone Dehumidification Design Supply Air Humidity Ratio {kgWater/kgDryAir}
  0.005,                                  !- Zone Cooling Design Supply Air Humidity Ratio Difference {kgWater/kgDryAir}
  HumidityRatioDifference,                !- Zone Latent Heating Design Supply Air Humidity Ratio Input Method
  ,                                       !- Zone Humidification Design Supply Air Humidity Ratio {kgWater/kgDryAir}
  0.005,                                  !- Zone Humidification Design Supply Air Humidity Ratio Difference {kgWater/kgDryAir}
  ,                                       !- Zone Humidistat Dehumidification Set Point Schedule Name
  ,                                       !- Zone Humidistat Humidification Set Point Schedule Name
  ,                                       !- Design Zone Air Distribution Effectiveness in Cooling Mode
  ,                                       !- Design Zone Air Distribution Effectiveness in Heating Mode
  ,                                       !- Design Zone Secondary Recirculation Fraction {dimensionless}
  ,                                       !- Design Minimum Zone Ventilation Efficiency {dimensionless}
  Coincident;                             !- Sizing Option

OS:ZoneHVAC:EquipmentList,
  {5fbc6048-dc88-4540-b615-e76b4779e1c6}, !- Handle
  Zone HVAC Equipment List 1,             !- Name
  {f7e19fe3-36ff-456b-b4f4-8ad1b6b53b3c}, !- Thermal Zone
  ,                                       !- Load Distribution Scheme
  {2b2c76a5-7bc8-446c-980f-a660bc559743}, !- Zone Equipment 1
  1,                                      !- Zone Equipment Cooling Sequence 1
  1,                                      !- Zone Equipment Heating or No-Load Sequence 1
  {af26d604-b8c7-4615-a7b0-de0ac5cff1f9}, !- Zone Equipment Sequential Cooling Fraction Schedule Name 1
  {98a146bb-4c9e-4767-842c-e3cabb059d0e}; !- Zone Equipment Sequential Heating Fraction Schedule Name 1

OS:AdditionalProperties,
  {71500145-964e-4055-9e13-cbffc9a1e9f1}, !- Handle
  {f7e19fe3-36ff-456b-b4f4-8ad1b6b53b3c}, !- Object Name
  ObjectType,                             !- Feature Name 1
  String,                                 !- Feature Data Type 1
  conditioned space;                      !- Feature Value 1

OS:Space,
  {4f441fc4-e006-426a-9dac-bae633932517}, !- Handle
  conditioned space 1,                    !- Name
  ,                                       !- Space Type Name
  ,                                       !- Default Construction Set Name
  ,                                       !- Default Schedule Set Name
  ,                                       !- Direction of Relative North {deg}
  ,                                       !- X Origin {m}
  ,                                       !- Y Origin {m}
  ,                                       !- Z Origin {m}
  ,                                       !- Building Story Name
  {f7e19fe3-36ff-456b-b4f4-8ad1b6b53b3c}, !- Thermal Zone Name
  ,                                       !- Part of Total Floor Area
  ,                                       !- Design Specification Outdoor Air Object Name
  ,                                       !- Building Unit Name
  692.06373070848;                        !- Volume {m3}

OS:Schedule:Ruleset,
  {563a07f6-514d-4770-b913-614039f1920a}, !- Handle
  heating setpoint,                       !- Name
  {2bdf6681-f878-45e9-94a5-a5aa505e0fa4}, !- Schedule Type Limits Name
  {2c507472-90dd-4b0c-a6ae-97ce33749dab}; !- Default Day Schedule Name

OS:Schedule:Day,
  {2c507472-90dd-4b0c-a6ae-97ce33749dab}, !- Handle
  heating setpoint default day,           !- Name
  {2bdf6681-f878-45e9-94a5-a5aa505e0fa4}, !- Schedule Type Limits Name
  ,                                       !- Interpolate to Timestep
  24,                                     !- Hour 1
  0,                                      !- Minute 1
  0;                                      !- Value Until Time 1

OS:Schedule:Rule,
  {d00aa148-1005-4140-b552-0465fb2beccc}, !- Handle
  heating setpoint allday rule,           !- Name
  {563a07f6-514d-4770-b913-614039f1920a}, !- Schedule Ruleset Name
  0,                                      !- Rule Order
  {0981d53c-d859-4825-92a3-11af26ec4807}, !- Day Schedule Name
  Yes,                                    !- Apply Sunday
  Yes,                                    !- Apply Monday
  Yes,                                    !- Apply Tuesday
  Yes,                                    !- Apply Wednesday
  Yes,                                    !- Apply Thursday
  Yes,                                    !- Apply Friday
  Yes,                                    !- Apply Saturday
  DateRange,                              !- Date Specification Type
  1,                                      !- Start Month
  1,                                      !- Start Day
  12,                                     !- End Month
  31;                                     !- End Day

OS:Schedule:Day,
  {0981d53c-d859-4825-92a3-11af26ec4807}, !- Handle
  heating setpoint day,                   !- Name
  {2bdf6681-f878-45e9-94a5-a5aa505e0fa4}, !- Schedule Type Limits Name
  ,                                       !- Interpolate to Timestep
  24,                                     !- Hour 1
  0,                                      !- Minute 1
  20;                                     !- Value Until Time 1

OS:Schedule:Ruleset,
  {b37709ff-f356-447e-ab6b-d4a5e9b9be6d}, !- Handle
  cooling setpoint,                       !- Name
  {2bdf6681-f878-45e9-94a5-a5aa505e0fa4}, !- Schedule Type Limits Name
  {08c445f5-5d32-4335-bf6a-c849e69f1da5}; !- Default Day Schedule Name

OS:Schedule:Day,
  {08c445f5-5d32-4335-bf6a-c849e69f1da5}, !- Handle
  cooling setpoint default day,           !- Name
  {2bdf6681-f878-45e9-94a5-a5aa505e0fa4}, !- Schedule Type Limits Name
  ,                                       !- Interpolate to Timestep
  24,                                     !- Hour 1
  0,                                      !- Minute 1
  0;                                      !- Value Until Time 1

OS:Schedule:Rule,
  {a2680528-41ac-4d3b-b825-459d3dafa315}, !- Handle
  cooling setpoint allday rule,           !- Name
  {b37709ff-f356-447e-ab6b-d4a5e9b9be6d}, !- Schedule Ruleset Name
  0,                                      !- Rule Order
  {f3255cfa-3606-4538-912b-5192f98521fe}, !- Day Schedule Name
  Yes,                                    !- Apply Sunday
  Yes,                                    !- Apply Monday
  Yes,                                    !- Apply Tuesday
  Yes,                                    !- Apply Wednesday
  Yes,                                    !- Apply Thursday
  Yes,                                    !- Apply Friday
  Yes,                                    !- Apply Saturday
  DateRange,                              !- Date Specification Type
  1,                                      !- Start Month
  1,                                      !- Start Day
  12,                                     !- End Month
  31;                                     !- End Day

OS:Schedule:Day,
  {f3255cfa-3606-4538-912b-5192f98521fe}, !- Handle
  cooling setpoint day,                   !- Name
  {2bdf6681-f878-45e9-94a5-a5aa505e0fa4}, !- Schedule Type Limits Name
  ,                                       !- Interpolate to Timestep
  24,                                     !- Hour 1
  0,                                      !- Minute 1
  25.5555555555556;                       !- Value Until Time 1

OS:ThermostatSetpoint:DualSetpoint,
  {dceeeee6-6929-40e1-91d9-3edb2de281c5}, !- Handle
  conditioned space temperature setpoint, !- Name
  {563a07f6-514d-4770-b913-614039f1920a}, !- Heating Setpoint Temperature Schedule Name
  {b37709ff-f356-447e-ab6b-d4a5e9b9be6d}, !- Cooling Setpoint Temperature Schedule Name
  0;                                      !- Temperature Difference Between Cutout And Setpoint {deltaC}

OS:ScheduleTypeLimits,
  {2bdf6681-f878-45e9-94a5-a5aa505e0fa4}, !- Handle
  Temperature,                            !- Name
  ,                                       !- Lower Limit Value
  ,                                       !- Upper Limit Value
  Continuous,                             !- Numeric Type
  Temperature;                            !- Unit Type

OS:Surface,
  {7f366b3e-4d52-47fe-a450-04e3b17c1a1e}, !- Handle
  Roof1,                                  !- Name
  RoofCeiling,                            !- Surface Type
  {414c3aec-a33d-4a42-aae2-1de8edbc5dc6}, !- Construction Name
  {d12908ce-107b-41d1-b9ab-5d39ed340a20}, !- Space Name
  Outdoors,                               !- Outside Boundary Condition
  ,                                       !- Outside Boundary Condition Object
  SunExposed,                             !- Sun Exposure
  WindExposed,                            !- Wind Exposure
  ,                                       !- View Factor to Ground
  ,                                       !- Number of Vertices
  -26.9347048849634, 58.0557891618865, 2.4384, !- X,Y,Z Vertex 1 {m}
  -26.9347048849634, 46.7895631136661, 8.0715130241102, !- X,Y,Z Vertex 2 {m}
  -14.3386812381136, 46.7895631136661, 8.0715130241102, !- X,Y,Z Vertex 3 {m}
  -14.3386812381136, 58.0557891618865, 2.4384; !- X,Y,Z Vertex 4 {m}

OS:AdditionalProperties,
  {a66149f7-5c2f-458a-bf5e-08e5d5d4c59c}, !- Handle
  {7f366b3e-4d52-47fe-a450-04e3b17c1a1e}, !- Object Name
  Length,                                 !- Feature Name 1
  Double,                                 !- Feature Data Type 1
  41.325536899113608,                     !- Feature Value 1
  Width,                                  !- Feature Name 2
  Double,                                 !- Feature Data Type 2
  41.325536899113601,                     !- Feature Value 2
  Azimuth,                                !- Feature Name 3
  Integer,                                !- Feature Data Type 3
  0,                                      !- Feature Value 3
  Tilt,                                   !- Feature Name 4
  Double,                                 !- Feature Data Type 4
  0.5,                                    !- Feature Value 4
  SurfaceType,                            !- Feature Name 5
  String,                                 !- Feature Data Type 5
  Roof;                                   !- Feature Value 5

OS:ThermalZone,
  {f291fe5b-0060-4f3b-9944-4adc71967938}, !- Handle
  attic - vented,                         !- Name
  1,                                      !- Multiplier
  ,                                       !- Ceiling Height {m}
  356.389957095237,                       !- Volume {m3}
  ,                                       !- Floor Area {m2}
  ,                                       !- Zone Inside Convection Algorithm
  ,                                       !- Zone Outside Convection Algorithm
  ,                                       !- Zone Conditioning Equipment List Name
  {4301baaf-9717-4cf4-a660-7ce49aa00602}, !- Zone Air Inlet Port List
  {59700561-b0db-48a9-9d86-076c8e0a65db}, !- Zone Air Exhaust Port List
  {ec662721-74ac-4691-aa6d-405bc3ee235f}, !- Zone Air Node Name
  {f42d9997-eb9a-4c1c-9f2a-fe297a6c76cc}, !- Zone Return Air Port List
  ,                                       !- Primary Daylighting Control Name
  ,                                       !- Fraction of Zone Controlled by Primary Daylighting Control
  ,                                       !- Secondary Daylighting Control Name
  ,                                       !- Fraction of Zone Controlled by Secondary Daylighting Control
  ,                                       !- Illuminance Map Name
  ,                                       !- Group Rendering Name
  ,                                       !- Thermostat Name
  No;                                     !- Use Ideal Air Loads

OS:Node,
  {ea13dd9a-def7-49df-94aa-0c6b78b8a75c}, !- Handle
  Node 2,                                 !- Name
  {ec662721-74ac-4691-aa6d-405bc3ee235f}, !- Inlet Port
  ;                                       !- Outlet Port

OS:Connection,
  {ec662721-74ac-4691-aa6d-405bc3ee235f}, !- Handle
  {f291fe5b-0060-4f3b-9944-4adc71967938}, !- Source Object
  11,                                     !- Outlet Port
  {ea13dd9a-def7-49df-94aa-0c6b78b8a75c}, !- Target Object
  2;                                      !- Inlet Port

OS:PortList,
  {4301baaf-9717-4cf4-a660-7ce49aa00602}, !- Handle
  {f291fe5b-0060-4f3b-9944-4adc71967938}; !- HVAC Component

OS:PortList,
  {59700561-b0db-48a9-9d86-076c8e0a65db}, !- Handle
  {f291fe5b-0060-4f3b-9944-4adc71967938}; !- HVAC Component

OS:PortList,
  {f42d9997-eb9a-4c1c-9f2a-fe297a6c76cc}, !- Handle
  {f291fe5b-0060-4f3b-9944-4adc71967938}; !- HVAC Component

OS:Sizing:Zone,
  {e050bf8a-d97a-4328-b941-91b92cd47470}, !- Handle
  {f291fe5b-0060-4f3b-9944-4adc71967938}, !- Zone or ZoneList Name
  SupplyAirTemperature,                   !- Zone Cooling Design Supply Air Temperature Input Method
  14,                                     !- Zone Cooling Design Supply Air Temperature {C}
  11.11,                                  !- Zone Cooling Design Supply Air Temperature Difference {deltaC}
  SupplyAirTemperature,                   !- Zone Heating Design Supply Air Temperature Input Method
  40,                                     !- Zone Heating Design Supply Air Temperature {C}
  11.11,                                  !- Zone Heating Design Supply Air Temperature Difference {deltaC}
  0.0085,                                 !- Zone Cooling Design Supply Air Humidity Ratio {kg-H2O/kg-air}
  0.008,                                  !- Zone Heating Design Supply Air Humidity Ratio {kg-H2O/kg-air}
  ,                                       !- Zone Heating Sizing Factor
  ,                                       !- Zone Cooling Sizing Factor
  DesignDay,                              !- Cooling Design Air Flow Method
  ,                                       !- Cooling Design Air Flow Rate {m3/s}
  ,                                       !- Cooling Minimum Air Flow per Zone Floor Area {m3/s-m2}
  ,                                       !- Cooling Minimum Air Flow {m3/s}
  ,                                       !- Cooling Minimum Air Flow Fraction
  DesignDay,                              !- Heating Design Air Flow Method
  ,                                       !- Heating Design Air Flow Rate {m3/s}
  ,                                       !- Heating Maximum Air Flow per Zone Floor Area {m3/s-m2}
  ,                                       !- Heating Maximum Air Flow {m3/s}
  ,                                       !- Heating Maximum Air Flow Fraction
  No,                                     !- Account for Dedicated Outdoor Air System
  NeutralSupplyAir,                       !- Dedicated Outdoor Air System Control Strategy
  autosize,                               !- Dedicated Outdoor Air Low Setpoint Temperature for Design {C}
  autosize,                               !- Dedicated Outdoor Air High Setpoint Temperature for Design {C}
  Sensible Load Only No Latent Load,      !- Zone Load Sizing Method
  HumidityRatioDifference,                !- Zone Latent Cooling Design Supply Air Humidity Ratio Input Method
  ,                                       !- Zone Dehumidification Design Supply Air Humidity Ratio {kgWater/kgDryAir}
  0.005,                                  !- Zone Cooling Design Supply Air Humidity Ratio Difference {kgWater/kgDryAir}
  HumidityRatioDifference,                !- Zone Latent Heating Design Supply Air Humidity Ratio Input Method
  ,                                       !- Zone Humidification Design Supply Air Humidity Ratio {kgWater/kgDryAir}
  0.005,                                  !- Zone Humidification Design Supply Air Humidity Ratio Difference {kgWater/kgDryAir}
  ,                                       !- Zone Humidistat Dehumidification Set Point Schedule Name
  ,                                       !- Zone Humidistat Humidification Set Point Schedule Name
  ,                                       !- Design Zone Air Distribution Effectiveness in Cooling Mode
  ,                                       !- Design Zone Air Distribution Effectiveness in Heating Mode
  ,                                       !- Design Zone Secondary Recirculation Fraction {dimensionless}
  ,                                       !- Design Minimum Zone Ventilation Efficiency {dimensionless}
  Coincident;                             !- Sizing Option

OS:ZoneHVAC:EquipmentList,
  {39019d85-e127-40a5-bd73-a9d62d031fff}, !- Handle
  Zone HVAC Equipment List 2,             !- Name
  {f291fe5b-0060-4f3b-9944-4adc71967938}; !- Thermal Zone

OS:AdditionalProperties,
  {69c6696f-e0a0-4561-808e-e7037c7698a2}, !- Handle
  {f291fe5b-0060-4f3b-9944-4adc71967938}, !- Object Name
  ObjectType,                             !- Feature Name 1
  String,                                 !- Feature Data Type 1
  attic - vented;                         !- Feature Value 1

OS:Space,
  {d12908ce-107b-41d1-b9ab-5d39ed340a20}, !- Handle
  attic - vented 1,                       !- Name
  ,                                       !- Space Type Name
  ,                                       !- Default Construction Set Name
  ,                                       !- Default Schedule Set Name
  ,                                       !- Direction of Relative North {deg}
  ,                                       !- X Origin {m}
  ,                                       !- Y Origin {m}
  ,                                       !- Z Origin {m}
  ,                                       !- Building Story Name
  {f291fe5b-0060-4f3b-9944-4adc71967938}, !- Thermal Zone Name
  ,                                       !- Part of Total Floor Area
  ,                                       !- Design Specification Outdoor Air Object Name
  ,                                       !- Building Unit Name
  356.389957095237;                       !- Volume {m3}

OS:Material,
  {afd48707-11f1-4297-a75c-e70b53da682d}, !- Handle
  asphalt or fiberglass shingles,         !- Name
  Rough,                                  !- Roughness
  0.00635,                                !- Thickness {m}
  0.162714,                               !- Conductivity {W/m-K}
  1121.4,                                 !- Density {kg/m3}
  1465.45,                                !- Specific Heat {J/kg-K}
  0.9,                                    !- Thermal Absorptance
  0.85,                                   !- Solar Absorptance