
OS:Version,
  {45ed99fe-ef8c-48a0-b0dd-a8aeb7c3aeba}, !- Handle
  3.10.0;                                 !- Version Identifier

OS:SimulationControl,
  {b875f665-9129-4a28-b407-ff66a48a0e1b}, !- Handle
  ,                                       !- Do Zone Sizing Calculation
  ,                                       !- Do System Sizing Calculation
  ,                                       !- Do Plant Sizing Calculation
  No;                                     !- Run Simulation for Sizing Periods

OS:Timestep,
  {96e1e522-bba9-4358-9425-932f2b8cd942}, !- Handle
  1;                                      !- Number of Timesteps per Hour

OS:ShadowCalculation,
  {81450ce9-052a-473f-aff1-f70688c90e3d}, !- Handle
  PolygonClipping,                        !- Shading Calculation Method
  ,                                       !- Shading Calculation Update Frequency Method
  20,                                     !- Shading Calculation Update Frequency
  200,                                    !- Maximum Figures in Shadow Overlap Calculations
  ,                                       !- Polygon Clipping Algorithm
  512,                                    !- Pixel Counting Resolution
  ,                                       !- Sky Diffuse Modeling Algorithm
  No,                                     !- Output External Shading Calculation Results
  No,                                     !- Disable Self-Shading Within Shading Zone Groups
  No;                                     !- Disable Self-Shading From Shading Zone Groups to Other Zones

OS:SurfaceConvectionAlgorithm:Outside,
  {ef3b9856-b593-4c8b-a655-df0afcb12c21}, !- Handle
  DOE-2;                                  !- Algorithm

OS:SurfaceConvectionAlgorithm:Inside,
  {bc926b13-044e-4e06-bab0-297ce697ddaf}, !- Handle
  TARP;                                   !- Algorithm

OS:ZoneCapacitanceMultiplier:ResearchSpecial,
  {ad2af3e9-bb9f-4c39-b74d-5c1d21b6a535}, !- Handle
  7,                                      !- Temperature Capacity Multiplier
  15,                                     !- Humidity Capacity Multiplier
  ;                                       !- Carbon Dioxide Capacity Multiplier

OS:ConvergenceLimits,
  {08ae8eb3-4910-48bb-8a9f-848d792e9730}, !- Handle
  0;                                      !- Minimum System Timestep {minutes}

OS:RunPeriod,
  {1104e407-3389-4654-af29-1d90b6450c41}, !- Handle
  Run Period 1,                           !- Name
  1,                                      !- Begin Month
  1,                                      !- Begin Day of Month
  12,                                     !- End Month
  31,                                     !- End Day of Month
  ,                                       !- Use Weather File Holidays and Special Days
  ,                                       !- Use Weather File Daylight Saving Period
  ,                                       !- Apply Weekend Holiday Rule
  ,                                       !- Use Weather File Rain Indicators
  ,                                       !- Use Weather File Snow Indicators
  ;                                       !- Number of Times Runperiod to be Repeated

OS:PerformancePrecisionTradeoffs,
  {26d743b8-b644-4f1d-8f05-9f6fe9f721bd}, !- Handle
  ,                                       !- Use Coil Direct Solutions
  CarrollMRT;                             !- Zone Radiant Exchange Algorithm

OS:WeatherFile,
  {0cf7ed3a-49d2-4da1-98ea-fc9c93adfab0}, !- Handle
  Buffalo Niagara Intl Ap,                !- City
  NY,                                     !- State Province Region
  USA,                                    !- Country
  TMY3,                                   !- Data Source
  725280,                                 !- WMO Number
  42.93,                                  !- Latitude {deg}
  -78.73,                                 !- Longitude {deg}
  -5,                                     !- Time Zone {hr}
  215,                                    !- Elevation {m}
  /Users/nmoore/github/urbanopt-example-geojson-project/example_project/weather/USA_NY_Buffalo-Greater.Buffalo.Intl.AP.725280_TMY3.epw, !- Url
  6B50E0FF,                               !- Checksum
  ,                                       !- Start Date Actual Year
  Sunday;                                 !- Start Day of Week

OS:YearDescription,
  {2df3fa7b-1eab-44f9-95fe-d2f465d0ebf8}, !- Handle
  2007,                                   !- Calendar Year
  ,                                       !- Day of Week for Start Day
  ;                                       !- Is Leap Year

OS:Site,
  {30625de7-9fec-4f8b-885e-d7eea5272c6f}, !- Handle
  Buffalo Niagara Intl Ap_NY,             !- Name
  42.93,                                  !- Latitude {deg}
  -78.73,                                 !- Longitude {deg}
  -5,                                     !- Time Zone {hr}
  215,                                    !- Elevation {m}
  Suburbs,                                !- Terrain
  Yes;                                    !- Keep Site Location Information

OS:RunPeriodControl:DaylightSavingTime,
  {47b2ba72-b5f1-4c77-aeb2-d165f6d80db2}, !- Handle
  Mar 12,                                 !- Start Date
  Nov 5;                                  !- End Date

OS:Site:GroundTemperature:Shallow,
  {59a1998c-0bc9-45cf-9837-49dfaa5e8930}, !- Handle
  4.30207395723828,                       !- January Surface Ground Temperature {C}
  2.29327249652502,                       !- February Surface Ground Temperature {C}
  2.13240047156047,                       !- March Surface Ground Temperature {C}
  3.08567940719286,                       !- April Surface Ground Temperature {C}
  6.91256312497526,                       !- May Surface Ground Temperature {C}
  10.7216195949507,                       !- June Surface Ground Temperature {C}
  14.0238679822574,                       !- July Surface Ground Temperature {C}
  16.1157611184724,                       !- August Surface Ground Temperature {C}
  16.2934789303462,                       !- September Surface Ground Temperature {C}
  14.5920754632847,                       !- October Surface Ground Temperature {C}
  11.374036348653,                        !- November Surface Ground Temperature {C}
  7.68182621661674;                       !- December Surface Ground Temperature {C}

OS:ThermalZone,
  {ac22ce69-20ac-4786-aa96-8f583f90c904}, !- Handle
  conditioned space,                      !- Name
  1,                                      !- Multiplier
  ,                                       !- Ceiling Height {m}
  692.06373070848,                        !- Volume {m3}
  ,                                       !- Floor Area {m2}
  ,                                       !- Zone Inside Convection Algorithm
  ,                                       !- Zone Outside Convection Algorithm
  ,                                       !- Zone Conditioning Equipment List Name
  {b3d43d5c-499f-44d9-8b0a-5b4ed01fd11f}, !- Zone Air Inlet Port List
  {fc3806f2-c63e-4f74-b32e-f31a418b6e32}, !- Zone Air Exhaust Port List
  {f8f10b9b-6454-4ebf-8196-6ff3087ddbce}, !- Zone Air Node Name
  {a410a7b2-14ca-4258-bc1c-6cc35704ec43}, !- Zone Return Air Port List
  ,                                       !- Primary Daylighting Control Name
  ,                                       !- Fraction of Zone Controlled by Primary Daylighting Control
  ,                                       !- Secondary Daylighting Control Name
  ,                                       !- Fraction of Zone Controlled by Secondary Daylighting Control
  ,                                       !- Illuminance Map Name
  ,                                       !- Group Rendering Name
  {a1b440c1-108b-4806-a74a-61d944285754}, !- Thermostat Name
  No;                                     !- Use Ideal Air Loads

OS:Node,
  {cad50bc2-dad2-4246-90fd-c8e238602070}, !- Handle
  Node 1,                                 !- Name
  {f8f10b9b-6454-4ebf-8196-6ff3087ddbce}, !- Inlet Port
  ;                                       !- Outlet Port

OS:Connection,
  {f8f10b9b-6454-4ebf-8196-6ff3087ddbce}, !- Handle
  {ac22ce69-20ac-4786-aa96-8f583f90c904}, !- Source Object
  11,                                     !- Outlet Port
  {cad50bc2-dad2-4246-90fd-c8e238602070}, !- Target Object
  2;                                      !- Inlet Port

OS:PortList,
  {b3d43d5c-499f-44d9-8b0a-5b4ed01fd11f}, !- Handle
  {ac22ce69-20ac-4786-aa96-8f583f90c904}, !- HVAC Component
  {133aa663-7c9c-452d-b2e6-318f4e613a81}; !- Port 1

OS:PortList,
  {fc3806f2-c63e-4f74-b32e-f31a418b6e32}, !- Handle
  {ac22ce69-20ac-4786-aa96-8f583f90c904}; !- HVAC Component

OS:PortList,
  {a410a7b2-14ca-4258-bc1c-6cc35704ec43}, !- Handle
  {ac22ce69-20ac-4786-aa96-8f583f90c904}, !- HVAC Component
  {89b17944-e4b3-4e8b-9837-a195ac5706e4}; !- Port 1

OS:Sizing:Zone,
  {fadfe2fc-d55a-4f2a-8c74-3ca496722804}, !- Handle
  {ac22ce69-20ac-4786-aa96-8f583f90c904}, !- Zone or ZoneList Name
  SupplyAirTemperature,                   !- Zone Cooling Design Supply Air Temperature Input Method
  14,                                     !- Zone Cooling Design Supply Air Temperature {C}
  11.11,                                  !- Zone Cooling Design Supply Air Temperature Difference {deltaC}
  SupplyAirTemperature,                   !- Zone Heating Design Supply Air Temperature Input Method
  40,                                     !- Zone Heating Design Supply Air Temperature {C}
  11.11,                                  !- Zone Heating Design Supply Air Temperature Difference {deltaC}
  0.0085,                                 !- Zone Cooling Design Supply Air Humidity Ratio {kg-H2O/kg-air}
  0.008,                                  !- Zone Heating Design Supply Air Humidity Ratio {kg-H2O/kg-air}
  ,                                       !- Zone Heating Sizing Factor
  ,                                       !- Zone Cooling Sizing Factor
  DesignDay,                              !- Cooling Design Air Flow Method
  ,                                       !- Cooling Design Air Flow Rate {m3/s}
  ,                                       !- Cooling Minimum Air Flow per Zone Floor Area {m3/s-m2}
  ,                                       !- Cooling Minimum Air Flow {m3/s}
  ,                                       !- Cooling Minimum Air Flow Fraction
  DesignDay,                              !- Heating Design Air Flow Method
  ,                                       !- Heating Design Air Flow Rate {m3/s}
  ,                                       !- Heating Maximum Air Flow per Zone Floor Area {m3/s-m2}
  ,                                       !- Heating Maximum Air Flow {m3/s}
  ,                                       !- Heating Maximum Air Flow Fraction
  No,                                     !- Account for Dedicated Outdoor Air System
  NeutralSupplyAir,                       !- Dedicated Outdoor Air System Control Strategy
  autosize,                               !- Dedicated Outdoor Air Low Setpoint Temperature for Design {C}
  autosize,                               !- Dedicated Outdoor Air High Setpoint Temperature for Design {C}
  Sensible Load Only No Latent Load,      !- Zone Load Sizing Method
  HumidityRatioDifference,                !- Zone Latent Cooling Design Supply Air Humidity Ratio Input Method
  ,                                       !- Zone Dehumidification Design Supply Air Humidity Ratio {kgWater/kgDryAir}
  0.005,                                  !- Zone Cooling Design Supply Air Humidity Ratio Difference {kgWater/kgDryAir}
  HumidityRatioDifference,                !- Zone Latent Heating Design Supply Air Humidity Ratio Input Method
  ,                                       !- Zone Humidification Design Supply Air Humidity Ratio {kgWater/kgDryAir}
  0.005,                                  !- Zone Humidification Design Supply Air Humidity Ratio Difference {kgWater/kgDryAir}
  ,                                       !- Zone Humidistat Dehumidification Set Point Schedule Name
  ,                                       !- Zone Humidistat Humidification Set Point Schedule Name
  ,                                       !- Design Zone Air Distribution Effectiveness in Cooling Mode
  ,                                       !- Design Zone Air Distribution Effectiveness in Heating Mode
  ,                                       !- Design Zone Secondary Recirculation Fraction {dimensionless}
  ,                                       !- Design Minimum Zone Ventilation Efficiency {dimensionless}
  Coincident;                             !- Sizing Option

OS:ZoneHVAC:EquipmentList,
  {9f05ca15-edd9-4abd-abd8-32aa93ab5511}, !- Handle
  Zone HVAC Equipment List 1,             !- Name
  {ac22ce69-20ac-4786-aa96-8f583f90c904}, !- Thermal Zone
  ,                                       !- Load Distribution Scheme
  {7044a86c-e853-434e-810e-916edba5889f}, !- Zone Equipment 1
  1,                                      !- Zone Equipment Cooling Sequence 1
  1,                                      !- Zone Equipment Heating or No-Load Sequence 1
  {fee4172b-f5bd-45aa-9fd3-5e6777809952}, !- Zone Equipment Sequential Cooling Fraction Schedule Name 1
  {2957341c-e40b-4334-88df-c39acc7b0b2d}; !- Zone Equipment Sequential Heating Fraction Schedule Name 1

OS:AdditionalProperties,
  {43f7556a-d754-4284-8359-367675961e73}, !- Handle
  {ac22ce69-20ac-4786-aa96-8f583f90c904}, !- Object Name
  ObjectType,                             !- Feature Name 1
  String,                                 !- Feature Data Type 1
  conditioned space;                      !- Feature Value 1

OS:Space,
  {09f45dc5-d902-4207-af46-4749e0477f2d}, !- Handle
  conditioned space 1,                    !- Name
  ,                                       !- Space Type Name
  ,                                       !- Default Construction Set Name
  ,                                       !- Default Schedule Set Name
  ,                                       !- Direction of Relative North {deg}
  ,                                       !- X Origin {m}
  ,                                       !- Y Origin {m}
  ,                                       !- Z Origin {m}
  ,                                       !- Building Story Name
  {ac22ce69-20ac-4786-aa96-8f583f90c904}, !- Thermal Zone Name
  ,                                       !- Part of Total Floor Area
  ,                                       !- Design Specification Outdoor Air Object Name
  ,                                       !- Building Unit Name
  692.06373070848;                        !- Volume {m3}

OS:Schedule:Ruleset,
  {6cc55624-0412-4695-a7b3-0dffef461330}, !- Handle
  heating setpoint,                       !- Name
  {1ff1d183-8c5f-4721-b2db-12b1c2388b1d}, !- Schedule Type Limits Name
  {1eed202a-3271-4cca-9bbb-03e355c88e94}; !- Default Day Schedule Name

OS:Schedule:Day,
  {1eed202a-3271-4cca-9bbb-03e355c88e94}, !- Handle
  heating setpoint default day,           !- Name
  {1ff1d183-8c5f-4721-b2db-12b1c2388b1d}, !- Schedule Type Limits Name
  ,                                       !- Interpolate to Timestep
  24,                                     !- Hour 1
  0,                                      !- Minute 1
  0;                                      !- Value Until Time 1

OS:Schedule:Rule,
  {ac750f18-a622-4e35-92a4-4735203dad13}, !- Handle
  heating setpoint allday rule,           !- Name
  {6cc55624-0412-4695-a7b3-0dffef461330}, !- Schedule Ruleset Name
  0,                                      !- Rule Order
  {2a9eadef-78e0-4e50-900b-0910b770180b}, !- Day Schedule Name
  Yes,                                    !- Apply Sunday
  Yes,                                    !- Apply Monday
  Yes,                                    !- Apply Tuesday
  Yes,                                    !- Apply Wednesday
  Yes,                                    !- Apply Thursday
  Yes,                                    !- Apply Friday
  Yes,                                    !- Apply Saturday
  DateRange,                              !- Date Specification Type
  1,                                      !- Start Month
  1,                                      !- Start Day
  12,                                     !- End Month
  31;                                     !- End Day

OS:Schedule:Day,
  {2a9eadef-78e0-4e50-900b-0910b770180b}, !- Handle
  heating setpoint day,                   !- Name
  {1ff1d183-8c5f-4721-b2db-12b1c2388b1d}, !- Schedule Type Limits Name
  ,                                       !- Interpolate to Timestep
  24,                                     !- Hour 1
  0,                                      !- Minute 1
  20;                                     !- Value Until Time 1

OS:Schedule:Ruleset,
  {03d769bb-462b-4cd1-997d-e4d54e97dbd3}, !- Handle
  cooling setpoint,                       !- Name
  {1ff1d183-8c5f-4721-b2db-12b1c2388b1d}, !- Schedule Type Limits Name
  {1c9784c0-9596-4e5d-bf1f-99b3f20f5cd3}; !- Default Day Schedule Name

OS:Schedule:Day,
  {1c9784c0-9596-4e5d-bf1f-99b3f20f5cd3}, !- Handle
  cooling setpoint default day,           !- Name
  {1ff1d183-8c5f-4721-b2db-12b1c2388b1d}, !- Schedule Type Limits Name
  ,                                       !- Interpolate to Timestep
  24,                                     !- Hour 1
  0,                                      !- Minute 1
  0;                                      !- Value Until Time 1

OS:Schedule:Rule,
  {de1e8724-5bc7-46d1-b5e9-1bf30480a140}, !- Handle
  cooling setpoint allday rule,           !- Name
  {03d769bb-462b-4cd1-997d-e4d54e97dbd3}, !- Schedule Ruleset Name
  0,                                      !- Rule Order
  {5d21e048-8d85-451a-93da-f4100d17f247}, !- Day Schedule Name
  Yes,                                    !- Apply Sunday
  Yes,                                    !- Apply Monday
  Yes,                                    !- Apply Tuesday
  Yes,                                    !- Apply Wednesday
  Yes,                                    !- Apply Thursday
  Yes,                                    !- Apply Friday
  Yes,                                    !- Apply Saturday
  DateRange,                              !- Date Specification Type
  1,                                      !- Start Month
  1,                                      !- Start Day
  12,                                     !- End Month
  31;                                     !- End Day

OS:Schedule:Day,
  {5d21e048-8d85-451a-93da-f4100d17f247}, !- Handle
  cooling setpoint day,                   !- Name
  {1ff1d183-8c5f-4721-b2db-12b1c2388b1d}, !- Schedule Type Limits Name
  ,                                       !- Interpolate to Timestep
  24,                                     !- Hour 1
  0,                                      !- Minute 1
  25.5555555555556;                       !- Value Until Time 1

OS:ThermostatSetpoint:DualSetpoint,
  {a1b440c1-108b-4806-a74a-61d944285754}, !- Handle
  conditioned space temperature setpoint, !- Name
  {6cc55624-0412-4695-a7b3-0dffef461330}, !- Heating Setpoint Temperature Schedule Name
  {03d769bb-462b-4cd1-997d-e4d54e97dbd3}, !- Cooling Setpoint Temperature Schedule Name
  0;                                      !- Temperature Difference Between Cutout And Setpoint {deltaC}

OS:ScheduleTypeLimits,
  {1ff1d183-8c5f-4721-b2db-12b1c2388b1d}, !- Handle
  Temperature,                            !- Name
  ,                                       !- Lower Limit Value
  ,                                       !- Upper Limit Value
  Continuous,                             !- Numeric Type
  Temperature;                            !- Unit Type

OS:Surface,
  {9fdfff34-bda2-4fba-a417-ed35f30fca0f}, !- Handle
  Roof1,                                  !- Name
  RoofCeiling,                            !- Surface Type
  {03cf2628-0dcc-4b1b-a8e4-1c17471b1672}, !- Construction Name
  {1def281d-1ab7-4d00-9982-31ac0d3941b5}, !- Space Name
  Outdoors,                               !- Outside Boundary Condition
  ,                                       !- Outside Boundary Condition Object
  SunExposed,                             !- Sun Exposure
  WindExposed,                            !- Wind Exposure
  ,                                       !- View Factor to Ground
  ,                                       !- Number of Vertices
  -26.9347048849634, 58.0557891618865, 2.4384, !- X,Y,Z Vertex 1 {m}
  -26.9347048849634, 46.7895631136661, 8.0715130241102, !- X,Y,Z Vertex 2 {m}
  -14.3386812381136, 46.7895631136661, 8.0715130241102, !- X,Y,Z Vertex 3 {m}
  -14.3386812381136, 58.0557891618865, 2.4384; !- X,Y,Z Vertex 4 {m}

OS:AdditionalProperties,
  {8b59150b-0d91-4068-8015-ca94bb0a2e5a}, !- Handle
  {9fdfff34-bda2-4fba-a417-ed35f30fca0f}, !- Object Name
  Length,                                 !- Feature Name 1
  Double,                                 !- Feature Data Type 1
  41.325536899113608,                     !- Feature Value 1
  Width,                                  !- Feature Name 2
  Double,                                 !- Feature Data Type 2
  41.325536899113601,                     !- Feature Value 2
  Azimuth,                                !- Feature Name 3
  Integer,                                !- Feature Data Type 3
  0,                                      !- Feature Value 3
  Tilt,                                   !- Feature Name 4
  Double,                                 !- Feature Data Type 4
  0.5,                                    !- Feature Value 4
  SurfaceType,                            !- Feature Name 5
  String,                                 !- Feature Data Type 5
  Roof;                                   !- Feature Value 5

OS:ThermalZone,
  {c5744a39-edb5-4757-a7f7-07b7c492765b}, !- Handle
  attic - vented,                         !- Name
  1,                                      !- Multiplier
  ,                                       !- Ceiling Height {m}
  356.390921899745,                       !- Volume {m3}
  ,                                       !- Floor Area {m2}
  ,                                       !- Zone Inside Convection Algorithm
  ,                                       !- Zone Outside Convection Algorithm
  ,                                       !- Zone Conditioning Equipment List Name
  {da5edf34-51ab-4c4c-a3c5-202a2b444976}, !- Zone Air Inlet Port List
  {9c31dd0e-a484-4c4b-9f8c-144d9444aca7}, !- Zone Air Exhaust Port List
  {d1e22213-4c37-4d2b-95a7-094803164a3f}, !- Zone Air Node Name
  {346d5567-9705-43d8-b559-b1886e57afbd}, !- Zone Return Air Port List
  ,                                       !- Primary Daylighting Control Name
  ,                                       !- Fraction of Zone Controlled by Primary Daylighting Control
  ,                                       !- Secondary Daylighting Control Name
  ,                                       !- Fraction of Zone Controlled by Secondary Daylighting Control
  ,                                       !- Illuminance Map Name
  ,                                       !- Group Rendering Name
  ,                                       !- Thermostat Name
  No;                                     !- Use Ideal Air Loads

OS:Node,
  {5bcf16bd-0a39-4882-9819-e549fb8b27be}, !- Handle
  Node 2,                                 !- Name
  {d1e22213-4c37-4d2b-95a7-094803164a3f}, !- Inlet Port
  ;                                       !- Outlet Port

OS:Connection,
  {d1e22213-4c37-4d2b-95a7-094803164a3f}, !- Handle
  {c5744a39-edb5-4757-a7f7-07b7c492765b}, !- Source Object
  11,                                     !- Outlet Port
  {5bcf16bd-0a39-4882-9819-e549fb8b27be}, !- Target Object
  2;                                      !- Inlet Port

OS:PortList,
  {da5edf34-51ab-4c4c-a3c5-202a2b444976}, !- Handle
  {c5744a39-edb5-4757-a7f7-07b7c492765b}; !- HVAC Component

OS:PortList,
  {9c31dd0e-a484-4c4b-9f8c-144d9444aca7}, !- Handle
  {c5744a39-edb5-4757-a7f7-07b7c492765b}; !- HVAC Component

OS:PortList,
  {346d5567-9705-43d8-b559-b1886e57afbd}, !- Handle
  {c5744a39-edb5-4757-a7f7-07b7c492765b}; !- HVAC Component

OS:Sizing:Zone,
  {25c24808-1386-4550-85f8-3638b6087ddc}, !- Handle
  {c5744a39-edb5-4757-a7f7-07b7c492765b}, !- Zone or ZoneList Name
  SupplyAirTemperature,                   !- Zone Cooling Design Supply Air Temperature Input Method
  14,                                     !- Zone Cooling Design Supply Air Temperature {C}
  11.11,                                  !- Zone Cooling Design Supply Air Temperature Difference {deltaC}
  SupplyAirTemperature,                   !- Zone Heating Design Supply Air Temperature Input Method
  40,                                     !- Zone Heating Design Supply Air Temperature {C}
  11.11,                                  !- Zone Heating Design Supply Air Temperature Difference {deltaC}
  0.0085,                                 !- Zone Cooling Design Supply Air Humidity Ratio {kg-H2O/kg-air}
  0.008,                                  !- Zone Heating Design Supply Air Humidity Ratio {kg-H2O/kg-air}
  ,                                       !- Zone Heating Sizing Factor
  ,                                       !- Zone Cooling Sizing Factor
  DesignDay,                              !- Cooling Design Air Flow Method
  ,                                       !- Cooling Design Air Flow Rate {m3/s}
  ,                                       !- Cooling Minimum Air Flow per Zone Floor Area {m3/s-m2}
  ,                                       !- Cooling Minimum Air Flow {m3/s}
  ,                                       !- Cooling Minimum Air Flow Fraction
  DesignDay,                              !- Heating Design Air Flow Method
  ,                                       !- Heating Design Air Flow Rate {m3/s}
  ,                                       !- Heating Maximum Air Flow per Zone Floor Area {m3/s-m2}
  ,                                       !- Heating Maximum Air Flow {m3/s}
  ,                                       !- Heating Maximum Air Flow Fraction
  No,                                     !- Account for Dedicated Outdoor Air System
  NeutralSupplyAir,                       !- Dedicated Outdoor Air System Control Strategy
  autosize,                               !- Dedicated Outdoor Air Low Setpoint Temperature for Design {C}
  autosize,                               !- Dedicated Outdoor Air High Setpoint Temperature for Design {C}
  Sensible Load Only No Latent Load,      !- Zone Load Sizing Method
  HumidityRatioDifference,                !- Zone Latent Cooling Design Supply Air Humidity Ratio Input Method
  ,                                       !- Zone Dehumidification Design Supply Air Humidity Ratio {kgWater/kgDryAir}
  0.005,                                  !- Zone Cooling Design Supply Air Humidity Ratio Difference {kgWater/kgDryAir}
  HumidityRatioDifference,                !- Zone Latent Heating Design Supply Air Humidity Ratio Input Method
  ,                                       !- Zone Humidification Design Supply Air Humidity Ratio {kgWater/kgDryAir}
  0.005,                                  !- Zone Humidification Design Supply Air Humidity Ratio Difference {kgWater/kgDryAir}
  ,                                       !- Zone Humidistat Dehumidification Set Point Schedule Name
  ,                                       !- Zone Humidistat Humidification Set Point Schedule Name
  ,                                       !- Design Zone Air Distribution Effectiveness in Cooling Mode
  ,                                       !- Design Zone Air Distribution Effectiveness in Heating Mode
  ,                                       !- Design Zone Secondary Recirculation Fraction {dimensionless}
  ,                                       !- Design Minimum Zone Ventilation Efficiency {dimensionless}
  Coincident;                             !- Sizing Option

OS:ZoneHVAC:EquipmentList,
  {bc991290-5330-4c5b-99cb-41eaa09acfd2}, !- Handle
  Zone HVAC Equipment List 2,             !- Name
  {c5744a39-edb5-4757-a7f7-07b7c492765b}; !- Thermal Zone

OS:AdditionalProperties,
  {1af7589f-935c-4d91-80b3-0d00d1bb74ea}, !- Handle
  {c5744a39-edb5-4757-a7f7-07b7c492765b}, !- Object Name
  ObjectType,                             !- Feature Name 1
  String,                                 !- Feature Data Type 1
  attic - vented;                         !- Feature Value 1

OS:Space,
  {1def281d-1ab7-4d00-9982-31ac0d3941b5}, !- Handle
  attic - vented 1,                       !- Name
  ,                                       !- Space Type Name
  ,                                       !- Default Construction Set Name
  ,                                       !- Default Schedule Set Name
  ,                                       !- Direction of Relative North {deg}
  ,                                       !- X Origin {m}
  ,                                       !- Y Origin {m}
  ,                                       !- Z Origin {m}
  ,                                       !- Building Story Name
  {c5744a39-edb5-4757-a7f7-07b7c492765b}, !- Thermal Zone Name
  ,                                       !- Part of Total Floor Area
  ,                                       !- Design Specification Outdoor Air Object Name
  ,                                       !- Building Unit Name
  356.390921899745;                       !- Volume {m3}

OS:Material,
  {799bb025-40fb-4445-ae9f-eb31bf5d5213}, !- Handle
  asphalt or fiberglass shingles,         !- Name
  Rough,                                  !- Roughness
  0.00635,                                !- Thickness {m}
  0.162714,                               !- Conductivity {W/m-K}
  1121.4,                                 !- Density {kg/m3}
  1465.45,                                !- Specific Heat {J/kg-K}
  0.9,                                    !- Thermal Absorptance
  0.85,                                   !- Solar Absorptance