
OS:Version,
  {b353d43e-86f0-44bb-932b-6da35855bf97}, !- Handle
  3.10.0;                                 !- Version Identifier

OS:SimulationControl,
  {9b631a5a-d874-44e7-8bc9-bc0e6e705c40}, !- Handle
  ,                                       !- Do Zone Sizing Calculation
  ,                                       !- Do System Sizing Calculation
  ,                                       !- Do Plant Sizing Calculation
  No;                                     !- Run Simulation for Sizing Periods

OS:Timestep,
  {1a463197-311a-4335-95b2-959db87eecbd}, !- Handle
  1;                                      !- Number of Timesteps per Hour

OS:ShadowCalculation,
  {f43926d5-2fb2-4517-bbcb-2b474f971fc9}, !- Handle
  PolygonClipping,                        !- Shading Calculation Method
  ,                                       !- Shading Calculation Update Frequency Method
  20,                                     !- Shading Calculation Update Frequency
  200,                                    !- Maximum Figures in Shadow Overlap Calculations
  ,                                       !- Polygon Clipping Algorithm
  512,                                    !- Pixel Counting Resolution
  ,                                       !- Sky Diffuse Modeling Algorithm
  No,                                     !- Output External Shading Calculation Results
  No,                                     !- Disable Self-Shading Within Shading Zone Groups
  No;                                     !- Disable Self-Shading From Shading Zone Groups to Other Zones

OS:SurfaceConvectionAlgorithm:Outside,
  {e327c7ee-b154-4c09-9b2b-370e48f412a2}, !- Handle
  DOE-2;                                  !- Algorithm

OS:SurfaceConvectionAlgorithm:Inside,
  {351cea34-a6f4-4fb9-83ba-f97c66f99094}, !- Handle
  TARP;                                   !- Algorithm

OS:ZoneCapacitanceMultiplier:ResearchSpecial,
  {2c2da1b7-3df2-4fa2-b1d7-fc64077d4f66}, !- Handle
  7,                                      !- Temperature Capacity Multiplier
  15,                                     !- Humidity Capacity Multiplier
  ;                                       !- Carbon Dioxide Capacity Multiplier

OS:ConvergenceLimits,
  {37eebece-b68f-4cc2-92fe-94b794bd0d01}, !- Handle
  0;                                      !- Minimum System Timestep {minutes}

OS:RunPeriod,
  {2e77f181-6405-41ae-8d36-f5174e160bc9}, !- Handle
  Run Period 1,                           !- Name
  1,                                      !- Begin Month
  1,                                      !- Begin Day of Month
  12,                                     !- End Month
  31,                                     !- End Day of Month
  ,                                       !- Use Weather File Holidays and Special Days
  ,                                       !- Use Weather File Daylight Saving Period
  ,                                       !- Apply Weekend Holiday Rule
  ,                                       !- Use Weather File Rain Indicators
  ,                                       !- Use Weather File Snow Indicators
  ;                                       !- Number of Times Runperiod to be Repeated

OS:PerformancePrecisionTradeoffs,
  {b7e194d4-380f-4cb0-8076-3ca8eb48124a}, !- Handle
  ,                                       !- Use Coil Direct Solutions
  CarrollMRT;                             !- Zone Radiant Exchange Algorithm

OS:WeatherFile,
  {93708dec-87ab-4465-8928-437e42d72b8b}, !- Handle
  Buffalo Niagara Intl Ap,                !- City
  NY,                                     !- State Province Region
  USA,                                    !- Country
  TMY3,                                   !- Data Source
  725280,                                 !- WMO Number
  42.93,                                  !- Latitude {deg}
  -78.73,                                 !- Longitude {deg}
  -5,                                     !- Time Zone {hr}
  215,                                    !- Elevation {m}
  /Users/nmoore/github/urbanopt-example-geojson-project/example_project/weather/USA_NY_Buffalo-Greater.Buffalo.Intl.AP.725280_TMY3.epw, !- Url
  6B50E0FF,                               !- Checksum
  ,                                       !- Start Date Actual Year
  Sunday;                                 !- Start Day of Week

OS:YearDescription,
  {225a5485-4300-43c7-9f0b-ddda16e66d44}, !- Handle
  2007,                                   !- Calendar Year
  ,                                       !- Day of Week for Start Day
  ;                                       !- Is Leap Year

OS:Site,
  {6a893527-839a-418d-a200-9a6d11022e9e}, !- Handle
  Buffalo Niagara Intl Ap_NY,             !- Name
  42.93,                                  !- Latitude {deg}
  -78.73,                                 !- Longitude {deg}
  -5,                                     !- Time Zone {hr}
  215,                                    !- Elevation {m}
  Suburbs,                                !- Terrain
  Yes;                                    !- Keep Site Location Information

OS:RunPeriodControl:DaylightSavingTime,
  {5275f41a-4574-4ff1-a6a8-9e3b328964a6}, !- Handle
  Mar 12,                                 !- Start Date
  Nov 5;                                  !- End Date

OS:Site:GroundTemperature:Shallow,
  {109abce4-fd8a-4069-b7e4-630d1a319e8d}, !- Handle
  4.30207395723828,                       !- January Surface Ground Temperature {C}
  2.29327249652502,                       !- February Surface Ground Temperature {C}
  2.13240047156047,                       !- March Surface Ground Temperature {C}
  3.08567940719286,                       !- April Surface Ground Temperature {C}
  6.91256312497526,                       !- May Surface Ground Temperature {C}
  10.7216195949507,                       !- June Surface Ground Temperature {C}
  14.0238679822574,                       !- July Surface Ground Temperature {C}
  16.1157611184724,                       !- August Surface Ground Temperature {C}
  16.2934789303462,                       !- September Surface Ground Temperature {C}
  14.5920754632847,                       !- October Surface Ground Temperature {C}
  11.374036348653,                        !- November Surface Ground Temperature {C}
  7.68182621661674;                       !- December Surface Ground Temperature {C}

OS:ThermalZone,
  {68e65f38-3a87-494e-8ba8-8833a81d7012}, !- Handle
  conditioned space,                      !- Name
  1,                                      !- Multiplier
  ,                                       !- Ceiling Height {m}
  692.06373070848,                        !- Volume {m3}
  ,                                       !- Floor Area {m2}
  ,                                       !- Zone Inside Convection Algorithm
  ,                                       !- Zone Outside Convection Algorithm
  ,                                       !- Zone Conditioning Equipment List Name
  {d5c67e09-6edd-4c70-90b0-a769877cb039}, !- Zone Air Inlet Port List
  {28f7e8c2-3d17-417d-8783-0798f5707893}, !- Zone Air Exhaust Port List
  {31c59099-5535-49e6-99d8-662702e52e40}, !- Zone Air Node Name
  {f46438b6-8cd6-4f3c-98cd-003f4a7ab60a}, !- Zone Return Air Port List
  ,                                       !- Primary Daylighting Control Name
  ,                                       !- Fraction of Zone Controlled by Primary Daylighting Control
  ,                                       !- Secondary Daylighting Control Name
  ,                                       !- Fraction of Zone Controlled by Secondary Daylighting Control
  ,                                       !- Illuminance Map Name
  ,                                       !- Group Rendering Name
  {f1e56c61-1e2b-4e6c-a1ab-88fbf7fa24f1}, !- Thermostat Name
  No;                                     !- Use Ideal Air Loads

OS:Node,
  {5a3da507-1781-4c7a-bd1e-4ef57eb0eb4a}, !- Handle
  Node 1,                                 !- Name
  {31c59099-5535-49e6-99d8-662702e52e40}, !- Inlet Port
  ;                                       !- Outlet Port

OS:Connection,
  {31c59099-5535-49e6-99d8-662702e52e40}, !- Handle
  {68e65f38-3a87-494e-8ba8-8833a81d7012}, !- Source Object
  11,                                     !- Outlet Port
  {5a3da507-1781-4c7a-bd1e-4ef57eb0eb4a}, !- Target Object
  2;                                      !- Inlet Port

OS:PortList,
  {d5c67e09-6edd-4c70-90b0-a769877cb039}, !- Handle
  {68e65f38-3a87-494e-8ba8-8833a81d7012}, !- HVAC Component
  {f240bb75-ad99-4f02-a839-e4ae396628cb}; !- Port 1

OS:PortList,
  {28f7e8c2-3d17-417d-8783-0798f5707893}, !- Handle
  {68e65f38-3a87-494e-8ba8-8833a81d7012}; !- HVAC Component

OS:PortList,
  {f46438b6-8cd6-4f3c-98cd-003f4a7ab60a}, !- Handle
  {68e65f38-3a87-494e-8ba8-8833a81d7012}, !- HVAC Component
  {003e5764-cd2c-42d5-995b-377aee4d558a}; !- Port 1

OS:Sizing:Zone,
  {c38920fd-4877-4aa9-b3ee-d0135d4aac81}, !- Handle
  {68e65f38-3a87-494e-8ba8-8833a81d7012}, !- Zone or ZoneList Name
  SupplyAirTemperature,                   !- Zone Cooling Design Supply Air Temperature Input Method
  14,                                     !- Zone Cooling Design Supply Air Temperature {C}
  11.11,                                  !- Zone Cooling Design Supply Air Temperature Difference {deltaC}
  SupplyAirTemperature,                   !- Zone Heating Design Supply Air Temperature Input Method
  40,                                     !- Zone Heating Design Supply Air Temperature {C}
  11.11,                                  !- Zone Heating Design Supply Air Temperature Difference {deltaC}
  0.0085,                                 !- Zone Cooling Design Supply Air Humidity Ratio {kg-H2O/kg-air}
  0.008,                                  !- Zone Heating Design Supply Air Humidity Ratio {kg-H2O/kg-air}
  ,                                       !- Zone Heating Sizing Factor
  ,                                       !- Zone Cooling Sizing Factor
  DesignDay,                              !- Cooling Design Air Flow Method
  ,                                       !- Cooling Design Air Flow Rate {m3/s}
  ,                                       !- Cooling Minimum Air Flow per Zone Floor Area {m3/s-m2}
  ,                                       !- Cooling Minimum Air Flow {m3/s}
  ,                                       !- Cooling Minimum Air Flow Fraction
  DesignDay,                              !- Heating Design Air Flow Method
  ,                                       !- Heating Design Air Flow Rate {m3/s}
  ,                                       !- Heating Maximum Air Flow per Zone Floor Area {m3/s-m2}
  ,                                       !- Heating Maximum Air Flow {m3/s}
  ,                                       !- Heating Maximum Air Flow Fraction
  No,                                     !- Account for Dedicated Outdoor Air System
  NeutralSupplyAir,                       !- Dedicated Outdoor Air System Control Strategy
  autosize,                               !- Dedicated Outdoor Air Low Setpoint Temperature for Design {C}
  autosize,                               !- Dedicated Outdoor Air High Setpoint Temperature for Design {C}
  Sensible Load Only No Latent Load,      !- Zone Load Sizing Method
  HumidityRatioDifference,                !- Zone Latent Cooling Design Supply Air Humidity Ratio Input Method
  ,                                       !- Zone Dehumidification Design Supply Air Humidity Ratio {kgWater/kgDryAir}
  0.005,                                  !- Zone Cooling Design Supply Air Humidity Ratio Difference {kgWater/kgDryAir}
  HumidityRatioDifference,                !- Zone Latent Heating Design Supply Air Humidity Ratio Input Method
  ,                                       !- Zone Humidification Design Supply Air Humidity Ratio {kgWater/kgDryAir}
  0.005,                                  !- Zone Humidification Design Supply Air Humidity Ratio Difference {kgWater/kgDryAir}
  ,                                       !- Zone Humidistat Dehumidification Set Point Schedule Name
  ,                                       !- Zone Humidistat Humidification Set Point Schedule Name
  ,                                       !- Design Zone Air Distribution Effectiveness in Cooling Mode
  ,                                       !- Design Zone Air Distribution Effectiveness in Heating Mode
  ,                                       !- Design Zone Secondary Recirculation Fraction {dimensionless}
  ,                                       !- Design Minimum Zone Ventilation Efficiency {dimensionless}
  Coincident;                             !- Sizing Option

OS:ZoneHVAC:EquipmentList,
  {9c03de05-19c5-437b-b60c-4c52faa79493}, !- Handle
  Zone HVAC Equipment List 1,             !- Name
  {68e65f38-3a87-494e-8ba8-8833a81d7012}, !- Thermal Zone
  ,                                       !- Load Distribution Scheme
  {46954065-1a46-411d-8293-5ee8fab31552}, !- Zone Equipment 1
  1,                                      !- Zone Equipment Cooling Sequence 1
  1,                                      !- Zone Equipment Heating or No-Load Sequence 1
  {e95d0e5b-f839-4b84-b97d-5a7c65a0396e}, !- Zone Equipment Sequential Cooling Fraction Schedule Name 1
  {e47c5b70-573f-49c1-9d93-f6ffe0b47e4f}; !- Zone Equipment Sequential Heating Fraction Schedule Name 1

OS:AdditionalProperties,
  {28e306c2-3861-45c1-9d1c-c571f210c406}, !- Handle
  {68e65f38-3a87-494e-8ba8-8833a81d7012}, !- Object Name
  ObjectType,                             !- Feature Name 1
  String,                                 !- Feature Data Type 1
  conditioned space;                      !- Feature Value 1

OS:Space,
  {a40d4356-91b0-44d1-a93d-639ed2c8a3ce}, !- Handle
  conditioned space 1,                    !- Name
  ,                                       !- Space Type Name
  ,                                       !- Default Construction Set Name
  ,                                       !- Default Schedule Set Name
  ,                                       !- Direction of Relative North {deg}
  ,                                       !- X Origin {m}
  ,                                       !- Y Origin {m}
  ,                                       !- Z Origin {m}
  ,                                       !- Building Story Name
  {68e65f38-3a87-494e-8ba8-8833a81d7012}, !- Thermal Zone Name
  ,                                       !- Part of Total Floor Area
  ,                                       !- Design Specification Outdoor Air Object Name
  ,                                       !- Building Unit Name
  692.06373070848;                        !- Volume {m3}

OS:Schedule:Ruleset,
  {20fcdee1-6368-4d86-b5cd-f2c28b0c1f84}, !- Handle
  heating setpoint,                       !- Name
  {ae59c385-18c0-48fb-a732-bdc3a246d3ce}, !- Schedule Type Limits Name
  {d90142aa-852d-4f69-b76f-5e89d5a079e3}; !- Default Day Schedule Name

OS:Schedule:Day,
  {d90142aa-852d-4f69-b76f-5e89d5a079e3}, !- Handle
  heating setpoint default day,           !- Name
  {ae59c385-18c0-48fb-a732-bdc3a246d3ce}, !- Schedule Type Limits Name
  ,                                       !- Interpolate to Timestep
  24,                                     !- Hour 1
  0,                                      !- Minute 1
  0;                                      !- Value Until Time 1

OS:Schedule:Rule,
  {8a7c8050-e5b6-4d16-8281-d5b8f1da45aa}, !- Handle
  heating setpoint allday rule,           !- Name
  {20fcdee1-6368-4d86-b5cd-f2c28b0c1f84}, !- Schedule Ruleset Name
  0,                                      !- Rule Order
  {a8ea3151-ccb6-40dc-8795-ca61ce296617}, !- Day Schedule Name
  Yes,                                    !- Apply Sunday
  Yes,                                    !- Apply Monday
  Yes,                                    !- Apply Tuesday
  Yes,                                    !- Apply Wednesday
  Yes,                                    !- Apply Thursday
  Yes,                                    !- Apply Friday
  Yes,                                    !- Apply Saturday
  DateRange,                              !- Date Specification Type
  1,                                      !- Start Month
  1,                                      !- Start Day
  12,                                     !- End Month
  31;                                     !- End Day

OS:Schedule:Day,
  {a8ea3151-ccb6-40dc-8795-ca61ce296617}, !- Handle
  heating setpoint day,                   !- Name
  {ae59c385-18c0-48fb-a732-bdc3a246d3ce}, !- Schedule Type Limits Name
  ,                                       !- Interpolate to Timestep
  24,                                     !- Hour 1
  0,                                      !- Minute 1
  20;                                     !- Value Until Time 1

OS:Schedule:Ruleset,
  {d2d2b515-5021-4cab-9b27-bd6eb8956457}, !- Handle
  cooling setpoint,                       !- Name
  {ae59c385-18c0-48fb-a732-bdc3a246d3ce}, !- Schedule Type Limits Name
  {5ea58491-e573-4bd5-831b-9cf3121a9c5c}; !- Default Day Schedule Name

OS:Schedule:Day,
  {5ea58491-e573-4bd5-831b-9cf3121a9c5c}, !- Handle
  cooling setpoint default day,           !- Name
  {ae59c385-18c0-48fb-a732-bdc3a246d3ce}, !- Schedule Type Limits Name
  ,                                       !- Interpolate to Timestep
  24,                                     !- Hour 1
  0,                                      !- Minute 1
  0;                                      !- Value Until Time 1

OS:Schedule:Rule,
  {723d3514-1870-469f-ae85-450d3518c3c3}, !- Handle
  cooling setpoint allday rule,           !- Name
  {d2d2b515-5021-4cab-9b27-bd6eb8956457}, !- Schedule Ruleset Name
  0,                                      !- Rule Order
  {9711dfad-3a06-4f3c-9913-a3a37a8f7d19}, !- Day Schedule Name
  Yes,                                    !- Apply Sunday
  Yes,                                    !- Apply Monday
  Yes,                                    !- Apply Tuesday
  Yes,                                    !- Apply Wednesday
  Yes,                                    !- Apply Thursday
  Yes,                                    !- Apply Friday
  Yes,                                    !- Apply Saturday
  DateRange,                              !- Date Specification Type
  1,                                      !- Start Month
  1,                                      !- Start Day
  12,                                     !- End Month
  31;                                     !- End Day

OS:Schedule:Day,
  {9711dfad-3a06-4f3c-9913-a3a37a8f7d19}, !- Handle
  cooling setpoint day,                   !- Name
  {ae59c385-18c0-48fb-a732-bdc3a246d3ce}, !- Schedule Type Limits Name
  ,                                       !- Interpolate to Timestep
  24,                                     !- Hour 1
  0,                                      !- Minute 1
  25.5555555555556;                       !- Value Until Time 1

OS:ThermostatSetpoint:DualSetpoint,
  {f1e56c61-1e2b-4e6c-a1ab-88fbf7fa24f1}, !- Handle
  conditioned space temperature setpoint, !- Name
  {20fcdee1-6368-4d86-b5cd-f2c28b0c1f84}, !- Heating Setpoint Temperature Schedule Name
  {d2d2b515-5021-4cab-9b27-bd6eb8956457}, !- Cooling Setpoint Temperature Schedule Name
  0;                                      !- Temperature Difference Between Cutout And Setpoint {deltaC}

OS:ScheduleTypeLimits,
  {ae59c385-18c0-48fb-a732-bdc3a246d3ce}, !- Handle
  Temperature,                            !- Name
  ,                                       !- Lower Limit Value
  ,                                       !- Upper Limit Value
  Continuous,                             !- Numeric Type
  Temperature;                            !- Unit Type

OS:Surface,
  {aed68577-6cca-4709-ab9c-dc7157f09b9e}, !- Handle
  Roof1,                                  !- Name
  RoofCeiling,                            !- Surface Type
  {d227a9c4-ee53-4ccf-8a70-63c095f92741}, !- Construction Name
  {70bb5f16-bd95-4f13-a7a4-f6d1909179fa}, !- Space Name
  Outdoors,                               !- Outside Boundary Condition
  ,                                       !- Outside Boundary Condition Object
  SunExposed,                             !- Sun Exposure
  WindExposed,                            !- Wind Exposure
  ,                                       !- View Factor to Ground
  ,                                       !- Number of Vertices
  -26.9347048849634, 58.0557891618865, 2.4384, !- X,Y,Z Vertex 1 {m}
  -26.9347048849634, 46.7895631136661, 8.0715130241102, !- X,Y,Z Vertex 2 {m}
  -14.3386812381136, 46.7895631136661, 8.0715130241102, !- X,Y,Z Vertex 3 {m}
  -14.3386812381136, 58.0557891618865, 2.4384; !- X,Y,Z Vertex 4 {m}

OS:AdditionalProperties,
  {64399c35-e30f-408b-86e5-267d56f8c8ea}, !- Handle
  {aed68577-6cca-4709-ab9c-dc7157f09b9e}, !- Object Name
  Length,                                 !- Feature Name 1
  Double,                                 !- Feature Data Type 1
  41.325536899113608,                     !- Feature Value 1
  Width,                                  !- Feature Name 2
  Double,                                 !- Feature Data Type 2
  41.325536899113601,                     !- Feature Value 2
  Azimuth,                                !- Feature Name 3
  Integer,                                !- Feature Data Type 3
  0,                                      !- Feature Value 3
  Tilt,                                   !- Feature Name 4
  Double,                                 !- Feature Data Type 4
  0.5,                                    !- Feature Value 4
  SurfaceType,                            !- Feature Name 5
  String,                                 !- Feature Data Type 5
  Roof;                                   !- Feature Value 5

OS:ThermalZone,
  {ba007989-273e-4c1f-ab6f-91cca8b265c8}, !- Handle
  attic - vented,                         !- Name
  1,                                      !- Multiplier
  ,                                       !- Ceiling Height {m}
  356.390921899745,                       !- Volume {m3}
  ,                                       !- Floor Area {m2}
  ,                                       !- Zone Inside Convection Algorithm
  ,                                       !- Zone Outside Convection Algorithm
  ,                                       !- Zone Conditioning Equipment List Name
  {bf6bf343-788e-49d4-afa4-5f16a8b44dfd}, !- Zone Air Inlet Port List
  {bee19333-ae21-4afa-a0cf-ce9583728379}, !- Zone Air Exhaust Port List
  {aee14bb9-fa1e-4d84-84a6-b3e8d8c224d8}, !- Zone Air Node Name
  {08461ed8-5eb1-4c99-8359-8b6d3c01a3f3}, !- Zone Return Air Port List
  ,                                       !- Primary Daylighting Control Name
  ,                                       !- Fraction of Zone Controlled by Primary Daylighting Control
  ,                                       !- Secondary Daylighting Control Name
  ,                                       !- Fraction of Zone Controlled by Secondary Daylighting Control
  ,                                       !- Illuminance Map Name
  ,                                       !- Group Rendering Name
  ,                                       !- Thermostat Name
  No;                                     !- Use Ideal Air Loads

OS:Node,
  {03787f59-3702-4c47-9abc-647f1a6fe51d}, !- Handle
  Node 2,                                 !- Name
  {aee14bb9-fa1e-4d84-84a6-b3e8d8c224d8}, !- Inlet Port
  ;                                       !- Outlet Port

OS:Connection,
  {aee14bb9-fa1e-4d84-84a6-b3e8d8c224d8}, !- Handle
  {ba007989-273e-4c1f-ab6f-91cca8b265c8}, !- Source Object
  11,                                     !- Outlet Port
  {03787f59-3702-4c47-9abc-647f1a6fe51d}, !- Target Object
  2;                                      !- Inlet Port

OS:PortList,
  {bf6bf343-788e-49d4-afa4-5f16a8b44dfd}, !- Handle
  {ba007989-273e-4c1f-ab6f-91cca8b265c8}; !- HVAC Component

OS:PortList,
  {bee19333-ae21-4afa-a0cf-ce9583728379}, !- Handle
  {ba007989-273e-4c1f-ab6f-91cca8b265c8}; !- HVAC Component

OS:PortList,
  {08461ed8-5eb1-4c99-8359-8b6d3c01a3f3}, !- Handle
  {ba007989-273e-4c1f-ab6f-91cca8b265c8}; !- HVAC Component

OS:Sizing:Zone,
  {b0aaa9da-07a0-4f6a-b153-e8af07b30626}, !- Handle
  {ba007989-273e-4c1f-ab6f-91cca8b265c8}, !- Zone or ZoneList Name
  SupplyAirTemperature,                   !- Zone Cooling Design Supply Air Temperature Input Method
  14,                                     !- Zone Cooling Design Supply Air Temperature {C}
  11.11,                                  !- Zone Cooling Design Supply Air Temperature Difference {deltaC}
  SupplyAirTemperature,                   !- Zone Heating Design Supply Air Temperature Input Method
  40,                                     !- Zone Heating Design Supply Air Temperature {C}
  11.11,                                  !- Zone Heating Design Supply Air Temperature Difference {deltaC}
  0.0085,                                 !- Zone Cooling Design Supply Air Humidity Ratio {kg-H2O/kg-air}
  0.008,                                  !- Zone Heating Design Supply Air Humidity Ratio {kg-H2O/kg-air}
  ,                                       !- Zone Heating Sizing Factor
  ,                                       !- Zone Cooling Sizing Factor
  DesignDay,                              !- Cooling Design Air Flow Method
  ,                                       !- Cooling Design Air Flow Rate {m3/s}
  ,                                       !- Cooling Minimum Air Flow per Zone Floor Area {m3/s-m2}
  ,                                       !- Cooling Minimum Air Flow {m3/s}
  ,                                       !- Cooling Minimum Air Flow Fraction
  DesignDay,                              !- Heating Design Air Flow Method
  ,                                       !- Heating Design Air Flow Rate {m3/s}
  ,                                       !- Heating Maximum Air Flow per Zone Floor Area {m3/s-m2}
  ,                                       !- Heating Maximum Air Flow {m3/s}
  ,                                       !- Heating Maximum Air Flow Fraction
  No,                                     !- Account for Dedicated Outdoor Air System
  NeutralSupplyAir,                       !- Dedicated Outdoor Air System Control Strategy
  autosize,                               !- Dedicated Outdoor Air Low Setpoint Temperature for Design {C}
  autosize,                               !- Dedicated Outdoor Air High Setpoint Temperature for Design {C}
  Sensible Load Only No Latent Load,      !- Zone Load Sizing Method
  HumidityRatioDifference,                !- Zone Latent Cooling Design Supply Air Humidity Ratio Input Method
  ,                                       !- Zone Dehumidification Design Supply Air Humidity Ratio {kgWater/kgDryAir}
  0.005,                                  !- Zone Cooling Design Supply Air Humidity Ratio Difference {kgWater/kgDryAir}
  HumidityRatioDifference,                !- Zone Latent Heating Design Supply Air Humidity Ratio Input Method
  ,                                       !- Zone Humidification Design Supply Air Humidity Ratio {kgWater/kgDryAir}
  0.005,                                  !- Zone Humidification Design Supply Air Humidity Ratio Difference {kgWater/kgDryAir}
  ,                                       !- Zone Humidistat Dehumidification Set Point Schedule Name
  ,                                       !- Zone Humidistat Humidification Set Point Schedule Name
  ,                                       !- Design Zone Air Distribution Effectiveness in Cooling Mode
  ,                                       !- Design Zone Air Distribution Effectiveness in Heating Mode
  ,                                       !- Design Zone Secondary Recirculation Fraction {dimensionless}
  ,                                       !- Design Minimum Zone Ventilation Efficiency {dimensionless}
  Coincident;                             !- Sizing Option

OS:ZoneHVAC:EquipmentList,
  {203de159-4b73-4227-9474-969e9aa79347}, !- Handle
  Zone HVAC Equipment List 2,             !- Name
  {ba007989-273e-4c1f-ab6f-91cca8b265c8}; !- Thermal Zone

OS:AdditionalProperties,
  {db8be55a-9c9e-4b35-be1d-f482c9074bc1}, !- Handle
  {ba007989-273e-4c1f-ab6f-91cca8b265c8}, !- Object Name
  ObjectType,                             !- Feature Name 1
  String,                                 !- Feature Data Type 1
  attic - vented;                         !- Feature Value 1

OS:Space,
  {70bb5f16-bd95-4f13-a7a4-f6d1909179fa}, !- Handle
  attic - vented 1,                       !- Name
  ,                                       !- Space Type Name
  ,                                       !- Default Construction Set Name
  ,                                       !- Default Schedule Set Name
  ,                                       !- Direction of Relative North {deg}
  ,                                       !- X Origin {m}
  ,                                       !- Y Origin {m}
  ,                                       !- Z Origin {m}
  ,                                       !- Building Story Name
  {ba007989-273e-4c1f-ab6f-91cca8b265c8}, !- Thermal Zone Name
  ,                                       !- Part of Total Floor Area
  ,                                       !- Design Specification Outdoor Air Object Name
  ,                                       !- Building Unit Name
  356.390921899745;                       !- Volume {m3}

OS:Material,
  {1688a05f-94a0-490d-b0b9-795a930aeff3}, !- Handle
  asphalt or fiberglass shingles,         !- Name
  Rough,                                  !- Roughness
  0.00635,                                !- Thickness {m}
  0.162714,                               !- Conductivity {W/m-K}
  1121.4,                                 !- Density {kg/m3}
  1465.45,                                !- Specific Heat {J/kg-K}
  0.9,                                    !- Thermal Absorptance
  0.85,                                   !- Solar Absorptance