
OS:Version,
  {5fcd8ab3-b8da-4afd-99db-a550ec719215}, !- Handle
  3.9.0;                                  !- Version Identifier

OS:SimulationControl,
  {dcd8e9b5-c449-4fa6-bf16-8957ab4b894b}, !- Handle
  ,                                       !- Do Zone Sizing Calculation
  ,                                       !- Do System Sizing Calculation
  ,                                       !- Do Plant Sizing Calculation
  No;                                     !- Run Simulation for Sizing Periods

OS:Timestep,
  {7c55d615-f788-4de7-a537-f3e0ec20af12}, !- Handle
  1;                                      !- Number of Timesteps per Hour

OS:ShadowCalculation,
  {a7980e06-8434-441e-850b-c7e3ddd961ef}, !- Handle
  PolygonClipping,                        !- Shading Calculation Method
  ,                                       !- Shading Calculation Update Frequency Method
  20,                                     !- Shading Calculation Update Frequency
  200,                                    !- Maximum Figures in Shadow Overlap Calculations
  ,                                       !- Polygon Clipping Algorithm
  512,                                    !- Pixel Counting Resolution
  ,                                       !- Sky Diffuse Modeling Algorithm
  No,                                     !- Output External Shading Calculation Results
  No,                                     !- Disable Self-Shading Within Shading Zone Groups
  No;                                     !- Disable Self-Shading From Shading Zone Groups to Other Zones

OS:SurfaceConvectionAlgorithm:Outside,
  {0be4bdcf-f149-47ab-ab32-1eac519bf870}, !- Handle
  DOE-2;                                  !- Algorithm

OS:SurfaceConvectionAlgorithm:Inside,
  {ac5e7f88-108f-4a77-b6a2-d35d85c234b5}, !- Handle
  TARP;                                   !- Algorithm

OS:ZoneCapacitanceMultiplier:ResearchSpecial,
  {0bade86b-3c64-4358-b603-b5465a32ee67}, !- Handle
  7,                                      !- Temperature Capacity Multiplier
  15,                                     !- Humidity Capacity Multiplier
  ;                                       !- Carbon Dioxide Capacity Multiplier

OS:ConvergenceLimits,
  {7656d7c1-2056-45ab-8bef-cfa28a89f9e7}, !- Handle
  0;                                      !- Minimum System Timestep {minutes}

OS:RunPeriod,
  {aa72886a-5239-4893-9de9-4efb749af935}, !- Handle
  Run Period 1,                           !- Name
  1,                                      !- Begin Month
  1,                                      !- Begin Day of Month
  12,                                     !- End Month
  31,                                     !- End Day of Month
  ,                                       !- Use Weather File Holidays and Special Days
  ,                                       !- Use Weather File Daylight Saving Period
  ,                                       !- Apply Weekend Holiday Rule
  ,                                       !- Use Weather File Rain Indicators
  ,                                       !- Use Weather File Snow Indicators
  ;                                       !- Number of Times Runperiod to be Repeated

OS:PerformancePrecisionTradeoffs,
  {08a5af8b-1f2a-4f19-8e10-3a5fe80aa43e}, !- Handle
  ,                                       !- Use Coil Direct Solutions
  CarrollMRT;                             !- Zone Radiant Exchange Algorithm

OS:WeatherFile,
  {33aee8b7-5bcd-4518-be7e-f81a29673565}, !- Handle
  Buffalo Niagara Intl Ap,                !- City
  NY,                                     !- State Province Region
  USA,                                    !- Country
  TMY3,                                   !- Data Source
  725280,                                 !- WMO Number
  42.93,                                  !- Latitude {deg}
  -78.73,                                 !- Longitude {deg}
  -5,                                     !- Time Zone {hr}
  215,                                    !- Elevation {m}
  /Users/nmoore/github/urbanopt-example-geojson-project/example_project/weather/USA_NY_Buffalo-Greater.Buffalo.Intl.AP.725280_TMY3.epw, !- Url
  6B50E0FF,                               !- Checksum
  ,                                       !- Start Date Actual Year
  Sunday;                                 !- Start Day of Week

OS:YearDescription,
  {ac927fe6-8d35-438f-8dbb-094c5e7e7184}, !- Handle
  2007,                                   !- Calendar Year
  ,                                       !- Day of Week for Start Day
  ;                                       !- Is Leap Year

OS:Site,
  {69bbd9a8-1079-4e87-b0fc-34756bfaad97}, !- Handle
  Buffalo Niagara Intl Ap_NY,             !- Name
  42.93,                                  !- Latitude {deg}
  -78.73,                                 !- Longitude {deg}
  -5,                                     !- Time Zone {hr}
  215,                                    !- Elevation {m}
  Suburbs,                                !- Terrain
  Yes;                                    !- Keep Site Location Information

OS:RunPeriodControl:DaylightSavingTime,
  {cd6153e6-f971-4b2d-8ab1-b62a6c1394d0}, !- Handle
  Mar 12,                                 !- Start Date
  Nov 5;                                  !- End Date

OS:Site:GroundTemperature:Shallow,
  {cce53188-fdd7-46e4-9618-0ef0c44fd00f}, !- Handle
  4.30207395723828,                       !- January Surface Ground Temperature {C}
  2.29327249652502,                       !- February Surface Ground Temperature {C}
  2.13240047156047,                       !- March Surface Ground Temperature {C}
  3.08567940719286,                       !- April Surface Ground Temperature {C}
  6.91256312497526,                       !- May Surface Ground Temperature {C}
  10.7216195949507,                       !- June Surface Ground Temperature {C}
  14.0238679822574,                       !- July Surface Ground Temperature {C}
  16.1157611184724,                       !- August Surface Ground Temperature {C}
  16.2934789303462,                       !- September Surface Ground Temperature {C}
  14.5920754632847,                       !- October Surface Ground Temperature {C}
  11.374036348653,                        !- November Surface Ground Temperature {C}
  7.68182621661674;                       !- December Surface Ground Temperature {C}

OS:ThermalZone,
  {4d61b92f-f09f-4805-87bb-9d8eb79da797}, !- Handle
  conditioned space,                      !- Name
  1,                                      !- Multiplier
  ,                                       !- Ceiling Height {m}
  692.06373070848,                        !- Volume {m3}
  ,                                       !- Floor Area {m2}
  ,                                       !- Zone Inside Convection Algorithm
  ,                                       !- Zone Outside Convection Algorithm
  ,                                       !- Zone Conditioning Equipment List Name
  {2445bd34-6021-4198-89d9-e4cc9ba8882f}, !- Zone Air Inlet Port List
  {0a7ae69a-e1cb-4e5a-ab81-779f46c3faed}, !- Zone Air Exhaust Port List
  {9306071f-29d6-42d4-ba68-96bcbd9982c3}, !- Zone Air Node Name
  {4d96a336-5f8f-496e-8111-6d402c5822da}, !- Zone Return Air Port List
  ,                                       !- Primary Daylighting Control Name
  ,                                       !- Fraction of Zone Controlled by Primary Daylighting Control
  ,                                       !- Secondary Daylighting Control Name
  ,                                       !- Fraction of Zone Controlled by Secondary Daylighting Control
  ,                                       !- Illuminance Map Name
  ,                                       !- Group Rendering Name
  {8613326b-efde-4862-8f85-7ea6515b3f8a}, !- Thermostat Name
  No;                                     !- Use Ideal Air Loads

OS:Node,
  {96ec774f-5e31-437c-a029-36eaf378fae5}, !- Handle
  Node 1,                                 !- Name
  {9306071f-29d6-42d4-ba68-96bcbd9982c3}, !- Inlet Port
  ;                                       !- Outlet Port

OS:Connection,
  {9306071f-29d6-42d4-ba68-96bcbd9982c3}, !- Handle
  {4d61b92f-f09f-4805-87bb-9d8eb79da797}, !- Source Object
  11,                                     !- Outlet Port
  {96ec774f-5e31-437c-a029-36eaf378fae5}, !- Target Object
  2;                                      !- Inlet Port

OS:PortList,
  {2445bd34-6021-4198-89d9-e4cc9ba8882f}, !- Handle
  {4d61b92f-f09f-4805-87bb-9d8eb79da797}, !- HVAC Component
  {828b15d3-62a6-4334-b2d7-5acb632d6a6a}; !- Port 1

OS:PortList,
  {0a7ae69a-e1cb-4e5a-ab81-779f46c3faed}, !- Handle
  {4d61b92f-f09f-4805-87bb-9d8eb79da797}; !- HVAC Component

OS:PortList,
  {4d96a336-5f8f-496e-8111-6d402c5822da}, !- Handle
  {4d61b92f-f09f-4805-87bb-9d8eb79da797}, !- HVAC Component
  {23b00666-e859-4378-bcf6-4879fe90d1cc}; !- Port 1

OS:Sizing:Zone,
  {a203b6ec-4462-4cce-879e-aa48cf63b076}, !- Handle
  {4d61b92f-f09f-4805-87bb-9d8eb79da797}, !- Zone or ZoneList Name
  SupplyAirTemperature,                   !- Zone Cooling Design Supply Air Temperature Input Method
  14,                                     !- Zone Cooling Design Supply Air Temperature {C}
  11.11,                                  !- Zone Cooling Design Supply Air Temperature Difference {deltaC}
  SupplyAirTemperature,                   !- Zone Heating Design Supply Air Temperature Input Method
  40,                                     !- Zone Heating Design Supply Air Temperature {C}
  11.11,                                  !- Zone Heating Design Supply Air Temperature Difference {deltaC}
  0.0085,                                 !- Zone Cooling Design Supply Air Humidity Ratio {kg-H2O/kg-air}
  0.008,                                  !- Zone Heating Design Supply Air Humidity Ratio {kg-H2O/kg-air}
  ,                                       !- Zone Heating Sizing Factor
  ,                                       !- Zone Cooling Sizing Factor
  DesignDay,                              !- Cooling Design Air Flow Method
  ,                                       !- Cooling Design Air Flow Rate {m3/s}
  ,                                       !- Cooling Minimum Air Flow per Zone Floor Area {m3/s-m2}
  ,                                       !- Cooling Minimum Air Flow {m3/s}
  ,                                       !- Cooling Minimum Air Flow Fraction
  DesignDay,                              !- Heating Design Air Flow Method
  ,                                       !- Heating Design Air Flow Rate {m3/s}
  ,                                       !- Heating Maximum Air Flow per Zone Floor Area {m3/s-m2}
  ,                                       !- Heating Maximum Air Flow {m3/s}
  ,                                       !- Heating Maximum Air Flow Fraction
  No,                                     !- Account for Dedicated Outdoor Air System
  NeutralSupplyAir,                       !- Dedicated Outdoor Air System Control Strategy
  autosize,                               !- Dedicated Outdoor Air Low Setpoint Temperature for Design {C}
  autosize,                               !- Dedicated Outdoor Air High Setpoint Temperature for Design {C}
  Sensible Load Only No Latent Load,      !- Zone Load Sizing Method
  HumidityRatioDifference,                !- Zone Latent Cooling Design Supply Air Humidity Ratio Input Method
  ,                                       !- Zone Dehumidification Design Supply Air Humidity Ratio {kgWater/kgDryAir}
  0.005,                                  !- Zone Cooling Design Supply Air Humidity Ratio Difference {kgWater/kgDryAir}
  HumidityRatioDifference,                !- Zone Latent Heating Design Supply Air Humidity Ratio Input Method
  ,                                       !- Zone Humidification Design Supply Air Humidity Ratio {kgWater/kgDryAir}
  0.005,                                  !- Zone Humidification Design Supply Air Humidity Ratio Difference {kgWater/kgDryAir}
  ,                                       !- Zone Humidistat Dehumidification Set Point Schedule Name
  ,                                       !- Zone Humidistat Humidification Set Point Schedule Name
  ,                                       !- Design Zone Air Distribution Effectiveness in Cooling Mode
  ,                                       !- Design Zone Air Distribution Effectiveness in Heating Mode
  ,                                       !- Design Zone Secondary Recirculation Fraction {dimensionless}
  ,                                       !- Design Minimum Zone Ventilation Efficiency {dimensionless}
  Coincident;                             !- Sizing Option

OS:ZoneHVAC:EquipmentList,
  {935f0208-9a80-4990-ae2f-f18f4b42e1e6}, !- Handle
  Zone HVAC Equipment List 1,             !- Name
  {4d61b92f-f09f-4805-87bb-9d8eb79da797}, !- Thermal Zone
  ,                                       !- Load Distribution Scheme
  {305faa07-7e62-47de-97c8-d92ed70f1cfb}, !- Zone Equipment 1
  1,                                      !- Zone Equipment Cooling Sequence 1
  1,                                      !- Zone Equipment Heating or No-Load Sequence 1
  {2faff1e2-c046-414b-8d59-4ec7f8ec8e26}, !- Zone Equipment Sequential Cooling Fraction Schedule Name 1
  {85472448-9584-4a4b-b1b0-980e14acee2e}; !- Zone Equipment Sequential Heating Fraction Schedule Name 1

OS:AdditionalProperties,
  {0d1e07db-a36b-4fa7-95a6-9a248c5475a5}, !- Handle
  {4d61b92f-f09f-4805-87bb-9d8eb79da797}, !- Object Name
  ObjectType,                             !- Feature Name 1
  String,                                 !- Feature Data Type 1
  conditioned space;                      !- Feature Value 1

OS:Space,
  {ce8d42b4-d6fc-4fa4-b189-1cbba40e9616}, !- Handle
  conditioned space 1,                    !- Name
  ,                                       !- Space Type Name
  ,                                       !- Default Construction Set Name
  ,                                       !- Default Schedule Set Name
  ,                                       !- Direction of Relative North {deg}
  ,                                       !- X Origin {m}
  ,                                       !- Y Origin {m}
  ,                                       !- Z Origin {m}
  ,                                       !- Building Story Name
  {4d61b92f-f09f-4805-87bb-9d8eb79da797}, !- Thermal Zone Name
  ,                                       !- Part of Total Floor Area
  ,                                       !- Design Specification Outdoor Air Object Name
  ,                                       !- Building Unit Name
  692.06373070848;                        !- Volume {m3}

OS:Schedule:Ruleset,
  {d0a5ed6a-fb74-4539-a791-4ce8e90ff18b}, !- Handle
  heating setpoint,                       !- Name
  {3ea97d90-dffb-4bf0-8d30-c9aadbe5ffaa}, !- Schedule Type Limits Name
  {57093a83-2d57-4776-be93-cc901f612abe}; !- Default Day Schedule Name

OS:Schedule:Day,
  {57093a83-2d57-4776-be93-cc901f612abe}, !- Handle
  heating setpoint default day,           !- Name
  {3ea97d90-dffb-4bf0-8d30-c9aadbe5ffaa}, !- Schedule Type Limits Name
  ,                                       !- Interpolate to Timestep
  24,                                     !- Hour 1
  0,                                      !- Minute 1
  0;                                      !- Value Until Time 1

OS:Schedule:Rule,
  {e7358199-e58f-4e6a-bc30-6bfaae00264e}, !- Handle
  heating setpoint allday rule,           !- Name
  {d0a5ed6a-fb74-4539-a791-4ce8e90ff18b}, !- Schedule Ruleset Name
  0,                                      !- Rule Order
  {8dd76a16-9d64-43c7-9edd-130fef7031af}, !- Day Schedule Name
  Yes,                                    !- Apply Sunday
  Yes,                                    !- Apply Monday
  Yes,                                    !- Apply Tuesday
  Yes,                                    !- Apply Wednesday
  Yes,                                    !- Apply Thursday
  Yes,                                    !- Apply Friday
  Yes,                                    !- Apply Saturday
  DateRange,                              !- Date Specification Type
  1,                                      !- Start Month
  1,                                      !- Start Day
  12,                                     !- End Month
  31;                                     !- End Day

OS:Schedule:Day,
  {8dd76a16-9d64-43c7-9edd-130fef7031af}, !- Handle
  heating setpoint day,                   !- Name
  {3ea97d90-dffb-4bf0-8d30-c9aadbe5ffaa}, !- Schedule Type Limits Name
  ,                                       !- Interpolate to Timestep
  24,                                     !- Hour 1
  0,                                      !- Minute 1
  20;                                     !- Value Until Time 1

OS:Schedule:Ruleset,
  {bfa9bcd2-6b0f-4bab-bb65-1bc2f8ffb768}, !- Handle
  cooling setpoint,                       !- Name
  {3ea97d90-dffb-4bf0-8d30-c9aadbe5ffaa}, !- Schedule Type Limits Name
  {52336c31-9cd2-41a0-b016-d79ad61c271b}; !- Default Day Schedule Name

OS:Schedule:Day,
  {52336c31-9cd2-41a0-b016-d79ad61c271b}, !- Handle
  cooling setpoint default day,           !- Name
  {3ea97d90-dffb-4bf0-8d30-c9aadbe5ffaa}, !- Schedule Type Limits Name
  ,                                       !- Interpolate to Timestep
  24,                                     !- Hour 1
  0,                                      !- Minute 1
  0;                                      !- Value Until Time 1

OS:Schedule:Rule,
  {af5b2f2a-cb64-45cb-b2fe-530e912f473a}, !- Handle
  cooling setpoint allday rule,           !- Name
  {bfa9bcd2-6b0f-4bab-bb65-1bc2f8ffb768}, !- Schedule Ruleset Name
  0,                                      !- Rule Order
  {ac19ae10-ce3d-4848-af73-3c88c81a52cd}, !- Day Schedule Name
  Yes,                                    !- Apply Sunday
  Yes,                                    !- Apply Monday
  Yes,                                    !- Apply Tuesday
  Yes,                                    !- Apply Wednesday
  Yes,                                    !- Apply Thursday
  Yes,                                    !- Apply Friday
  Yes,                                    !- Apply Saturday
  DateRange,                              !- Date Specification Type
  1,                                      !- Start Month
  1,                                      !- Start Day
  12,                                     !- End Month
  31;                                     !- End Day

OS:Schedule:Day,
  {ac19ae10-ce3d-4848-af73-3c88c81a52cd}, !- Handle
  cooling setpoint day,                   !- Name
  {3ea97d90-dffb-4bf0-8d30-c9aadbe5ffaa}, !- Schedule Type Limits Name
  ,                                       !- Interpolate to Timestep
  24,                                     !- Hour 1
  0,                                      !- Minute 1
  25.5555555555556;                       !- Value Until Time 1

OS:ThermostatSetpoint:DualSetpoint,
  {8613326b-efde-4862-8f85-7ea6515b3f8a}, !- Handle
  conditioned space temperature setpoint, !- Name
  {d0a5ed6a-fb74-4539-a791-4ce8e90ff18b}, !- Heating Setpoint Temperature Schedule Name
  {bfa9bcd2-6b0f-4bab-bb65-1bc2f8ffb768}, !- Cooling Setpoint Temperature Schedule Name
  0;                                      !- Temperature Difference Between Cutout And Setpoint {deltaC}

OS:ScheduleTypeLimits,
  {3ea97d90-dffb-4bf0-8d30-c9aadbe5ffaa}, !- Handle
  Temperature,                            !- Name
  ,                                       !- Lower Limit Value
  ,                                       !- Upper Limit Value
  Continuous,                             !- Numeric Type
  Temperature;                            !- Unit Type

OS:Surface,
  {790e8c17-878b-4d39-b547-ff5cb7b845cd}, !- Handle
  Roof1,                                  !- Name
  RoofCeiling,                            !- Surface Type
  {dd626894-6ddf-4acb-a46d-7d7bf6c244ba}, !- Construction Name
  {f3fbd2eb-74f6-486f-b591-3f333aed88d0}, !- Space Name
  Outdoors,                               !- Outside Boundary Condition
  ,                                       !- Outside Boundary Condition Object
  SunExposed,                             !- Sun Exposure
  WindExposed,                            !- Wind Exposure
  ,                                       !- View Factor to Ground
  ,                                       !- Number of Vertices
  -26.9347048849634, 58.0557891618865, 2.4384, !- X,Y,Z Vertex 1 {m}
  -26.9347048849634, 46.7895631136661, 8.0715130241102, !- X,Y,Z Vertex 2 {m}
  -14.3386812381136, 46.7895631136661, 8.0715130241102, !- X,Y,Z Vertex 3 {m}
  -14.3386812381136, 58.0557891618865, 2.4384; !- X,Y,Z Vertex 4 {m}

OS:AdditionalProperties,
  {c73ef02f-6bfa-4530-9d18-3c50a77c5038}, !- Handle
  {790e8c17-878b-4d39-b547-ff5cb7b845cd}, !- Object Name
  Length,                                 !- Feature Name 1
  Double,                                 !- Feature Data Type 1
  41.325536899113608,                     !- Feature Value 1
  Width,                                  !- Feature Name 2
  Double,                                 !- Feature Data Type 2
  41.325536899113601,                     !- Feature Value 2
  Azimuth,                                !- Feature Name 3
  Integer,                                !- Feature Data Type 3
  0,                                      !- Feature Value 3
  Tilt,                                   !- Feature Name 4
  Double,                                 !- Feature Data Type 4
  0.5,                                    !- Feature Value 4
  SurfaceType,                            !- Feature Name 5
  String,                                 !- Feature Data Type 5
  Roof;                                   !- Feature Value 5

OS:ThermalZone,
  {9aa96159-1a8a-473d-845a-7416bcc4ad76}, !- Handle
  attic - vented,                         !- Name
  1,                                      !- Multiplier
  ,                                       !- Ceiling Height {m}
  356.389957095237,                       !- Volume {m3}
  ,                                       !- Floor Area {m2}
  ,                                       !- Zone Inside Convection Algorithm
  ,                                       !- Zone Outside Convection Algorithm
  ,                                       !- Zone Conditioning Equipment List Name
  {038d2cc0-214f-4a7f-9628-fae7018d3a04}, !- Zone Air Inlet Port List
  {c57ad91f-fb0b-465a-bd25-1d5110333e41}, !- Zone Air Exhaust Port List
  {9ac4f079-bc6d-487c-b14e-d7d23fea01f5}, !- Zone Air Node Name
  {b0abfa92-23d1-4a20-9322-02324832861d}, !- Zone Return Air Port List
  ,                                       !- Primary Daylighting Control Name
  ,                                       !- Fraction of Zone Controlled by Primary Daylighting Control
  ,                                       !- Secondary Daylighting Control Name
  ,                                       !- Fraction of Zone Controlled by Secondary Daylighting Control
  ,                                       !- Illuminance Map Name
  ,                                       !- Group Rendering Name
  ,                                       !- Thermostat Name
  No;                                     !- Use Ideal Air Loads

OS:Node,
  {c02f0383-5de4-4b09-8138-239889482f3d}, !- Handle
  Node 2,                                 !- Name
  {9ac4f079-bc6d-487c-b14e-d7d23fea01f5}, !- Inlet Port
  ;                                       !- Outlet Port

OS:Connection,
  {9ac4f079-bc6d-487c-b14e-d7d23fea01f5}, !- Handle
  {9aa96159-1a8a-473d-845a-7416bcc4ad76}, !- Source Object
  11,                                     !- Outlet Port
  {c02f0383-5de4-4b09-8138-239889482f3d}, !- Target Object
  2;                                      !- Inlet Port

OS:PortList,
  {038d2cc0-214f-4a7f-9628-fae7018d3a04}, !- Handle
  {9aa96159-1a8a-473d-845a-7416bcc4ad76}; !- HVAC Component

OS:PortList,
  {c57ad91f-fb0b-465a-bd25-1d5110333e41}, !- Handle
  {9aa96159-1a8a-473d-845a-7416bcc4ad76}; !- HVAC Component

OS:PortList,
  {b0abfa92-23d1-4a20-9322-02324832861d}, !- Handle
  {9aa96159-1a8a-473d-845a-7416bcc4ad76}; !- HVAC Component

OS:Sizing:Zone,
  {8e837867-7706-443e-9bf0-a1e290f5579d}, !- Handle
  {9aa96159-1a8a-473d-845a-7416bcc4ad76}, !- Zone or ZoneList Name
  SupplyAirTemperature,                   !- Zone Cooling Design Supply Air Temperature Input Method
  14,                                     !- Zone Cooling Design Supply Air Temperature {C}
  11.11,                                  !- Zone Cooling Design Supply Air Temperature Difference {deltaC}
  SupplyAirTemperature,                   !- Zone Heating Design Supply Air Temperature Input Method
  40,                                     !- Zone Heating Design Supply Air Temperature {C}
  11.11,                                  !- Zone Heating Design Supply Air Temperature Difference {deltaC}
  0.0085,                                 !- Zone Cooling Design Supply Air Humidity Ratio {kg-H2O/kg-air}
  0.008,                                  !- Zone Heating Design Supply Air Humidity Ratio {kg-H2O/kg-air}
  ,                                       !- Zone Heating Sizing Factor
  ,                                       !- Zone Cooling Sizing Factor
  DesignDay,                              !- Cooling Design Air Flow Method
  ,                                       !- Cooling Design Air Flow Rate {m3/s}
  ,                                       !- Cooling Minimum Air Flow per Zone Floor Area {m3/s-m2}
  ,                                       !- Cooling Minimum Air Flow {m3/s}
  ,                                       !- Cooling Minimum Air Flow Fraction
  DesignDay,                              !- Heating Design Air Flow Method
  ,                                       !- Heating Design Air Flow Rate {m3/s}
  ,                                       !- Heating Maximum Air Flow per Zone Floor Area {m3/s-m2}
  ,                                       !- Heating Maximum Air Flow {m3/s}
  ,                                       !- Heating Maximum Air Flow Fraction
  No,                                     !- Account for Dedicated Outdoor Air System
  NeutralSupplyAir,                       !- Dedicated Outdoor Air System Control Strategy
  autosize,                               !- Dedicated Outdoor Air Low Setpoint Temperature for Design {C}
  autosize,                               !- Dedicated Outdoor Air High Setpoint Temperature for Design {C}
  Sensible Load Only No Latent Load,      !- Zone Load Sizing Method
  HumidityRatioDifference,                !- Zone Latent Cooling Design Supply Air Humidity Ratio Input Method
  ,                                       !- Zone Dehumidification Design Supply Air Humidity Ratio {kgWater/kgDryAir}
  0.005,                                  !- Zone Cooling Design Supply Air Humidity Ratio Difference {kgWater/kgDryAir}
  HumidityRatioDifference,                !- Zone Latent Heating Design Supply Air Humidity Ratio Input Method
  ,                                       !- Zone Humidification Design Supply Air Humidity Ratio {kgWater/kgDryAir}
  0.005,                                  !- Zone Humidification Design Supply Air Humidity Ratio Difference {kgWater/kgDryAir}
  ,                                       !- Zone Humidistat Dehumidification Set Point Schedule Name
  ,                                       !- Zone Humidistat Humidification Set Point Schedule Name
  ,                                       !- Design Zone Air Distribution Effectiveness in Cooling Mode
  ,                                       !- Design Zone Air Distribution Effectiveness in Heating Mode
  ,                                       !- Design Zone Secondary Recirculation Fraction {dimensionless}
  ,                                       !- Design Minimum Zone Ventilation Efficiency {dimensionless}
  Coincident;                             !- Sizing Option

OS:ZoneHVAC:EquipmentList,
  {17ebff30-724d-4d22-a8a4-4e6609c56901}, !- Handle
  Zone HVAC Equipment List 2,             !- Name
  {9aa96159-1a8a-473d-845a-7416bcc4ad76}; !- Thermal Zone

OS:AdditionalProperties,
  {055e7c30-a28f-4a89-8a27-25a8307f91c3}, !- Handle
  {9aa96159-1a8a-473d-845a-7416bcc4ad76}, !- Object Name
  ObjectType,                             !- Feature Name 1
  String,                                 !- Feature Data Type 1
  attic - vented;                         !- Feature Value 1

OS:Space,
  {f3fbd2eb-74f6-486f-b591-3f333aed88d0}, !- Handle
  attic - vented 1,                       !- Name
  ,                                       !- Space Type Name
  ,                                       !- Default Construction Set Name
  ,                                       !- Default Schedule Set Name
  ,                                       !- Direction of Relative North {deg}
  ,                                       !- X Origin {m}
  ,                                       !- Y Origin {m}
  ,                                       !- Z Origin {m}
  ,                                       !- Building Story Name
  {9aa96159-1a8a-473d-845a-7416bcc4ad76}, !- Thermal Zone Name
  ,                                       !- Part of Total Floor Area
  ,                                       !- Design Specification Outdoor Air Object Name
  ,                                       !- Building Unit Name
  356.389957095237;                       !- Volume {m3}

OS:Material,
  {64ff9418-bc02-4c14-8ffa-d8d298fba551}, !- Handle
  asphalt or fiberglass shingles,         !- Name
  Rough,                                  !- Roughness
  0.00635,                                !- Thickness {m}
  0.162714,                               !- Conductivity {W/m-K}
  1121.4,                                 !- Density {kg/m3}
  1465.45,                                !- Specific Heat {J/kg-K}
  0.9,                                    !- Thermal Absorptance
  0.85,                                   !- Solar Absorptance