
OS:Version,
  {153fbfe9-6889-4ba0-9238-e5e456229a24}, !- Handle
  3.10.0;                                 !- Version Identifier

OS:SimulationControl,
  {b9433596-cfba-40c8-80b8-d38655d3bdf8}, !- Handle
  ,                                       !- Do Zone Sizing Calculation
  ,                                       !- Do System Sizing Calculation
  ,                                       !- Do Plant Sizing Calculation
  No;                                     !- Run Simulation for Sizing Periods

OS:Timestep,
  {892afea2-d32e-4130-82f1-4f514760e44c}, !- Handle
  1;                                      !- Number of Timesteps per Hour

OS:ShadowCalculation,
  {db3958fa-5083-4b21-bb2f-dbfff463095d}, !- Handle
  PolygonClipping,                        !- Shading Calculation Method
  ,                                       !- Shading Calculation Update Frequency Method
  20,                                     !- Shading Calculation Update Frequency
  200,                                    !- Maximum Figures in Shadow Overlap Calculations
  ,                                       !- Polygon Clipping Algorithm
  512,                                    !- Pixel Counting Resolution
  ,                                       !- Sky Diffuse Modeling Algorithm
  No,                                     !- Output External Shading Calculation Results
  No,                                     !- Disable Self-Shading Within Shading Zone Groups
  No;                                     !- Disable Self-Shading From Shading Zone Groups to Other Zones

OS:SurfaceConvectionAlgorithm:Outside,
  {feb9e8d5-0046-4085-a94b-fcc76478d4c0}, !- Handle
  DOE-2;                                  !- Algorithm

OS:SurfaceConvectionAlgorithm:Inside,
  {f847904d-9393-4e83-a7e7-e241bcc49cf7}, !- Handle
  TARP;                                   !- Algorithm

OS:ZoneCapacitanceMultiplier:ResearchSpecial,
  {683d647f-59a4-4b6b-a5bd-8047c3404882}, !- Handle
  7,                                      !- Temperature Capacity Multiplier
  15,                                     !- Humidity Capacity Multiplier
  ;                                       !- Carbon Dioxide Capacity Multiplier

OS:ConvergenceLimits,
  {34363f1e-ec28-46f5-b290-9e59ad0f8ad9}, !- Handle
  0;                                      !- Minimum System Timestep {minutes}

OS:RunPeriod,
  {4a17c5df-a02f-467f-b178-2ddcd24c0e59}, !- Handle
  Run Period 1,                           !- Name
  1,                                      !- Begin Month
  1,                                      !- Begin Day of Month
  12,                                     !- End Month
  31,                                     !- End Day of Month
  ,                                       !- Use Weather File Holidays and Special Days
  ,                                       !- Use Weather File Daylight Saving Period
  ,                                       !- Apply Weekend Holiday Rule
  ,                                       !- Use Weather File Rain Indicators
  ,                                       !- Use Weather File Snow Indicators
  ;                                       !- Number of Times Runperiod to be Repeated

OS:PerformancePrecisionTradeoffs,
  {164ce741-91de-45ed-941d-9836713ee2a3}, !- Handle
  ,                                       !- Use Coil Direct Solutions
  CarrollMRT;                             !- Zone Radiant Exchange Algorithm

OS:WeatherFile,
  {cef94f8f-31e3-406e-9a38-a16f42e578a0}, !- Handle
  Buffalo Niagara Intl Ap,                !- City
  NY,                                     !- State Province Region
  USA,                                    !- Country
  TMY3,                                   !- Data Source
  725280,                                 !- WMO Number
  42.93,                                  !- Latitude {deg}
  -78.73,                                 !- Longitude {deg}
  -5,                                     !- Time Zone {hr}
  215,                                    !- Elevation {m}
  /Users/nmoore/github/urbanopt-example-geojson-project/example_project/weather/USA_NY_Buffalo-Greater.Buffalo.Intl.AP.725280_TMY3.epw, !- Url
  6B50E0FF,                               !- Checksum
  ,                                       !- Start Date Actual Year
  Sunday;                                 !- Start Day of Week

OS:YearDescription,
  {46ed5e4c-d2fa-44fd-aa87-f75b7f4e25fe}, !- Handle
  2007,                                   !- Calendar Year
  ,                                       !- Day of Week for Start Day
  ;                                       !- Is Leap Year

OS:Site,
  {f67331b2-f521-498e-8834-a19a9812b3f4}, !- Handle
  Buffalo Niagara Intl Ap_NY,             !- Name
  42.93,                                  !- Latitude {deg}
  -78.73,                                 !- Longitude {deg}
  -5,                                     !- Time Zone {hr}
  215,                                    !- Elevation {m}
  Suburbs,                                !- Terrain
  Yes;                                    !- Keep Site Location Information

OS:RunPeriodControl:DaylightSavingTime,
  {0aeb2934-f8f8-437a-be4f-36b5d393ae29}, !- Handle
  Mar 12,                                 !- Start Date
  Nov 5;                                  !- End Date

OS:Site:GroundTemperature:Shallow,
  {9c8888f5-7c7c-4ac1-b2a5-b35471a3988d}, !- Handle
  4.30207395723828,                       !- January Surface Ground Temperature {C}
  2.29327249652502,                       !- February Surface Ground Temperature {C}
  2.13240047156047,                       !- March Surface Ground Temperature {C}
  3.08567940719286,                       !- April Surface Ground Temperature {C}
  6.91256312497526,                       !- May Surface Ground Temperature {C}
  10.7216195949507,                       !- June Surface Ground Temperature {C}
  14.0238679822574,                       !- July Surface Ground Temperature {C}
  16.1157611184724,                       !- August Surface Ground Temperature {C}
  16.2934789303462,                       !- September Surface Ground Temperature {C}
  14.5920754632847,                       !- October Surface Ground Temperature {C}
  11.374036348653,                        !- November Surface Ground Temperature {C}
  7.68182621661674;                       !- December Surface Ground Temperature {C}

OS:ThermalZone,
  {2b251b20-1abf-48c9-a929-946118446571}, !- Handle
  conditioned space,                      !- Name
  1,                                      !- Multiplier
  ,                                       !- Ceiling Height {m}
  692.06373070848,                        !- Volume {m3}
  ,                                       !- Floor Area {m2}
  ,                                       !- Zone Inside Convection Algorithm
  ,                                       !- Zone Outside Convection Algorithm
  ,                                       !- Zone Conditioning Equipment List Name
  {d1eccb20-c858-4b3f-97aa-b9c5913dd31e}, !- Zone Air Inlet Port List
  {da3b3ba5-1e3d-483e-a371-ed788569a162}, !- Zone Air Exhaust Port List
  {3bf8741e-eb7a-4b58-8575-ddc28bfc93a2}, !- Zone Air Node Name
  {6d85b35c-b776-4619-aab5-45b19c2ee545}, !- Zone Return Air Port List
  ,                                       !- Primary Daylighting Control Name
  ,                                       !- Fraction of Zone Controlled by Primary Daylighting Control
  ,                                       !- Secondary Daylighting Control Name
  ,                                       !- Fraction of Zone Controlled by Secondary Daylighting Control
  ,                                       !- Illuminance Map Name
  ,                                       !- Group Rendering Name
  {2d79e3b4-3ba5-4005-8206-a8b8fdfc7c0c}, !- Thermostat Name
  No;                                     !- Use Ideal Air Loads

OS:Node,
  {08a79f1a-d8f1-43ba-affa-41511482df0a}, !- Handle
  Node 1,                                 !- Name
  {3bf8741e-eb7a-4b58-8575-ddc28bfc93a2}, !- Inlet Port
  ;                                       !- Outlet Port

OS:Connection,
  {3bf8741e-eb7a-4b58-8575-ddc28bfc93a2}, !- Handle
  {2b251b20-1abf-48c9-a929-946118446571}, !- Source Object
  11,                                     !- Outlet Port
  {08a79f1a-d8f1-43ba-affa-41511482df0a}, !- Target Object
  2;                                      !- Inlet Port

OS:PortList,
  {d1eccb20-c858-4b3f-97aa-b9c5913dd31e}, !- Handle
  {2b251b20-1abf-48c9-a929-946118446571}, !- HVAC Component
  {939b08f0-f7be-41e5-9134-3a9864ce6c07}, !- Port 1
  {68776a1e-11f6-4f5b-98b2-f6cb0b83887a}; !- Port 2

OS:PortList,
  {da3b3ba5-1e3d-483e-a371-ed788569a162}, !- Handle
  {2b251b20-1abf-48c9-a929-946118446571}; !- HVAC Component

OS:PortList,
  {6d85b35c-b776-4619-aab5-45b19c2ee545}, !- Handle
  {2b251b20-1abf-48c9-a929-946118446571}, !- HVAC Component
  {69b59ee1-c426-4be3-9723-001e93b2949e}, !- Port 1
  {13314b8a-0a6c-4642-ab65-e7d6c9a65a4e}; !- Port 2

OS:Sizing:Zone,
  {d9dc1a22-19be-4801-937c-39df33968ec0}, !- Handle
  {2b251b20-1abf-48c9-a929-946118446571}, !- Zone or ZoneList Name
  SupplyAirTemperature,                   !- Zone Cooling Design Supply Air Temperature Input Method
  14,                                     !- Zone Cooling Design Supply Air Temperature {C}
  11.11,                                  !- Zone Cooling Design Supply Air Temperature Difference {deltaC}
  SupplyAirTemperature,                   !- Zone Heating Design Supply Air Temperature Input Method
  40,                                     !- Zone Heating Design Supply Air Temperature {C}
  11.11,                                  !- Zone Heating Design Supply Air Temperature Difference {deltaC}
  0.0085,                                 !- Zone Cooling Design Supply Air Humidity Ratio {kg-H2O/kg-air}
  0.008,                                  !- Zone Heating Design Supply Air Humidity Ratio {kg-H2O/kg-air}
  ,                                       !- Zone Heating Sizing Factor
  ,                                       !- Zone Cooling Sizing Factor
  DesignDay,                              !- Cooling Design Air Flow Method
  ,                                       !- Cooling Design Air Flow Rate {m3/s}
  ,                                       !- Cooling Minimum Air Flow per Zone Floor Area {m3/s-m2}
  ,                                       !- Cooling Minimum Air Flow {m3/s}
  ,                                       !- Cooling Minimum Air Flow Fraction
  DesignDay,                              !- Heating Design Air Flow Method
  ,                                       !- Heating Design Air Flow Rate {m3/s}
  ,                                       !- Heating Maximum Air Flow per Zone Floor Area {m3/s-m2}
  ,                                       !- Heating Maximum Air Flow {m3/s}
  ,                                       !- Heating Maximum Air Flow Fraction
  No,                                     !- Account for Dedicated Outdoor Air System
  NeutralSupplyAir,                       !- Dedicated Outdoor Air System Control Strategy
  autosize,                               !- Dedicated Outdoor Air Low Setpoint Temperature for Design {C}
  autosize,                               !- Dedicated Outdoor Air High Setpoint Temperature for Design {C}
  Sensible Load Only No Latent Load,      !- Zone Load Sizing Method
  HumidityRatioDifference,                !- Zone Latent Cooling Design Supply Air Humidity Ratio Input Method
  ,                                       !- Zone Dehumidification Design Supply Air Humidity Ratio {kgWater/kgDryAir}
  0.005,                                  !- Zone Cooling Design Supply Air Humidity Ratio Difference {kgWater/kgDryAir}
  HumidityRatioDifference,                !- Zone Latent Heating Design Supply Air Humidity Ratio Input Method
  ,                                       !- Zone Humidification Design Supply Air Humidity Ratio {kgWater/kgDryAir}
  0.005,                                  !- Zone Humidification Design Supply Air Humidity Ratio Difference {kgWater/kgDryAir}
  ,                                       !- Zone Humidistat Dehumidification Set Point Schedule Name
  ,                                       !- Zone Humidistat Humidification Set Point Schedule Name
  ,                                       !- Design Zone Air Distribution Effectiveness in Cooling Mode
  ,                                       !- Design Zone Air Distribution Effectiveness in Heating Mode
  ,                                       !- Design Zone Secondary Recirculation Fraction {dimensionless}
  ,                                       !- Design Minimum Zone Ventilation Efficiency {dimensionless}
  Coincident;                             !- Sizing Option

OS:ZoneHVAC:EquipmentList,
  {64b7d7a6-4908-4352-ba8a-9867f5494345}, !- Handle
  Zone HVAC Equipment List 1,             !- Name
  {2b251b20-1abf-48c9-a929-946118446571}, !- Thermal Zone
  ,                                       !- Load Distribution Scheme
  {e5453a05-550f-42c1-bf30-06fe203a5167}, !- Zone Equipment 1
  1,                                      !- Zone Equipment Cooling Sequence 1
  1,                                      !- Zone Equipment Heating or No-Load Sequence 1
  {c537d7f6-0167-44ac-bafe-7f1baeb7982e}, !- Zone Equipment Sequential Cooling Fraction Schedule Name 1
  {a72fe4ec-2043-436c-9371-10ab6b0f39df}, !- Zone Equipment Sequential Heating Fraction Schedule Name 1
  {26907e14-e0fe-4af4-9022-08cee4732a3a}, !- Zone Equipment 2
  2,                                      !- Zone Equipment Cooling Sequence 2
  2,                                      !- Zone Equipment Heating or No-Load Sequence 2
  {b339cbb9-7dd7-4a04-94b6-65c893c53f9c}, !- Zone Equipment Sequential Cooling Fraction Schedule Name 2
  {fbf60b14-983f-46cb-87fe-5168e7d5b71a}; !- Zone Equipment Sequential Heating Fraction Schedule Name 2

OS:AdditionalProperties,
  {0c79447a-be93-4485-b0dc-7e0e718bd62d}, !- Handle
  {2b251b20-1abf-48c9-a929-946118446571}, !- Object Name
  ObjectType,                             !- Feature Name 1
  String,                                 !- Feature Data Type 1
  conditioned space;                      !- Feature Value 1

OS:Space,
  {d156241f-231e-4944-afe0-8d66a1e93bf4}, !- Handle
  conditioned space 1,                    !- Name
  ,                                       !- Space Type Name
  ,                                       !- Default Construction Set Name
  ,                                       !- Default Schedule Set Name
  ,                                       !- Direction of Relative North {deg}
  ,                                       !- X Origin {m}
  ,                                       !- Y Origin {m}
  ,                                       !- Z Origin {m}
  ,                                       !- Building Story Name
  {2b251b20-1abf-48c9-a929-946118446571}, !- Thermal Zone Name
  ,                                       !- Part of Total Floor Area
  ,                                       !- Design Specification Outdoor Air Object Name
  ,                                       !- Building Unit Name
  692.06373070848;                        !- Volume {m3}

OS:Schedule:Ruleset,
  {ece78d41-e68a-4873-9500-936b2b8cf2dc}, !- Handle
  heating setpoint,                       !- Name
  {e9cd2b04-c465-41de-92c2-a6b92e43c761}, !- Schedule Type Limits Name
  {4687d0cb-3910-4935-8e7d-4ff4131732ae}; !- Default Day Schedule Name

OS:Schedule:Day,
  {4687d0cb-3910-4935-8e7d-4ff4131732ae}, !- Handle
  heating setpoint default day,           !- Name
  {e9cd2b04-c465-41de-92c2-a6b92e43c761}, !- Schedule Type Limits Name
  ,                                       !- Interpolate to Timestep
  24,                                     !- Hour 1
  0,                                      !- Minute 1
  0;                                      !- Value Until Time 1

OS:Schedule:Rule,
  {71d80877-cb9b-4aa3-af00-1753a87b5061}, !- Handle
  heating setpoint allday rule,           !- Name
  {ece78d41-e68a-4873-9500-936b2b8cf2dc}, !- Schedule Ruleset Name
  0,                                      !- Rule Order
  {5103de11-0658-4a36-90c2-3a16db55e3e2}, !- Day Schedule Name
  Yes,                                    !- Apply Sunday
  Yes,                                    !- Apply Monday
  Yes,                                    !- Apply Tuesday
  Yes,                                    !- Apply Wednesday
  Yes,                                    !- Apply Thursday
  Yes,                                    !- Apply Friday
  Yes,                                    !- Apply Saturday
  DateRange,                              !- Date Specification Type
  1,                                      !- Start Month
  1,                                      !- Start Day
  12,                                     !- End Month
  31;                                     !- End Day

OS:Schedule:Day,
  {5103de11-0658-4a36-90c2-3a16db55e3e2}, !- Handle
  heating setpoint day,                   !- Name
  {e9cd2b04-c465-41de-92c2-a6b92e43c761}, !- Schedule Type Limits Name
  ,                                       !- Interpolate to Timestep
  24,                                     !- Hour 1
  0,                                      !- Minute 1
  20;                                     !- Value Until Time 1

OS:Schedule:Ruleset,
  {b5edefa8-50af-4502-a5b7-f6eebcbbfc7e}, !- Handle
  cooling setpoint,                       !- Name
  {e9cd2b04-c465-41de-92c2-a6b92e43c761}, !- Schedule Type Limits Name
  {e541748a-923d-48e5-b330-9ee36c90da38}; !- Default Day Schedule Name

OS:Schedule:Day,
  {e541748a-923d-48e5-b330-9ee36c90da38}, !- Handle
  cooling setpoint default day,           !- Name
  {e9cd2b04-c465-41de-92c2-a6b92e43c761}, !- Schedule Type Limits Name
  ,                                       !- Interpolate to Timestep
  24,                                     !- Hour 1
  0,                                      !- Minute 1
  0;                                      !- Value Until Time 1

OS:Schedule:Rule,
  {a32c2367-5ff0-4dfe-8f00-a4e57dbdd1f9}, !- Handle
  cooling setpoint allday rule,           !- Name
  {b5edefa8-50af-4502-a5b7-f6eebcbbfc7e}, !- Schedule Ruleset Name
  0,                                      !- Rule Order
  {1f57578c-c964-4ccf-9895-d83ef91c7acb}, !- Day Schedule Name
  Yes,                                    !- Apply Sunday
  Yes,                                    !- Apply Monday
  Yes,                                    !- Apply Tuesday
  Yes,                                    !- Apply Wednesday
  Yes,                                    !- Apply Thursday
  Yes,                                    !- Apply Friday
  Yes,                                    !- Apply Saturday
  DateRange,                              !- Date Specification Type
  1,                                      !- Start Month
  1,                                      !- Start Day
  12,                                     !- End Month
  31;                                     !- End Day

OS:Schedule:Day,
  {1f57578c-c964-4ccf-9895-d83ef91c7acb}, !- Handle
  cooling setpoint day,                   !- Name
  {e9cd2b04-c465-41de-92c2-a6b92e43c761}, !- Schedule Type Limits Name
  ,                                       !- Interpolate to Timestep
  24,                                     !- Hour 1
  0,                                      !- Minute 1
  25.5555555555556;                       !- Value Until Time 1

OS:ThermostatSetpoint:DualSetpoint,
  {2d79e3b4-3ba5-4005-8206-a8b8fdfc7c0c}, !- Handle
  conditioned space temperature setpoint, !- Name
  {ece78d41-e68a-4873-9500-936b2b8cf2dc}, !- Heating Setpoint Temperature Schedule Name
  {b5edefa8-50af-4502-a5b7-f6eebcbbfc7e}, !- Cooling Setpoint Temperature Schedule Name
  0;                                      !- Temperature Difference Between Cutout And Setpoint {deltaC}

OS:ScheduleTypeLimits,
  {e9cd2b04-c465-41de-92c2-a6b92e43c761}, !- Handle
  Temperature,                            !- Name
  ,                                       !- Lower Limit Value
  ,                                       !- Upper Limit Value
  Continuous,                             !- Numeric Type
  Temperature;                            !- Unit Type

OS:Surface,
  {fa408681-46c4-4e68-a9c0-9d497dd453d9}, !- Handle
  Roof1,                                  !- Name
  RoofCeiling,                            !- Surface Type
  {af292bdc-264c-42cf-8ef6-0436ec5b521f}, !- Construction Name
  {213559e1-22cd-4b1f-b473-c7e8c0b4ce30}, !- Space Name
  Outdoors,                               !- Outside Boundary Condition
  ,                                       !- Outside Boundary Condition Object
  SunExposed,                             !- Sun Exposure
  WindExposed,                            !- Wind Exposure
  ,                                       !- View Factor to Ground
  ,                                       !- Number of Vertices
  -26.9347048849634, 58.0557891618865, 2.4384, !- X,Y,Z Vertex 1 {m}
  -26.9347048849634, 46.7895631136661, 8.0715130241102, !- X,Y,Z Vertex 2 {m}
  -14.3386812381136, 46.7895631136661, 8.0715130241102, !- X,Y,Z Vertex 3 {m}
  -14.3386812381136, 58.0557891618865, 2.4384; !- X,Y,Z Vertex 4 {m}

OS:AdditionalProperties,
  {4de5f316-6cc8-4462-9715-f66e5deb9301}, !- Handle
  {fa408681-46c4-4e68-a9c0-9d497dd453d9}, !- Object Name
  Length,                                 !- Feature Name 1
  Double,                                 !- Feature Data Type 1
  41.325536899113608,                     !- Feature Value 1
  Width,                                  !- Feature Name 2
  Double,                                 !- Feature Data Type 2
  41.325536899113601,                     !- Feature Value 2
  Azimuth,                                !- Feature Name 3
  Integer,                                !- Feature Data Type 3
  0,                                      !- Feature Value 3
  Tilt,                                   !- Feature Name 4
  Double,                                 !- Feature Data Type 4
  0.5,                                    !- Feature Value 4
  SurfaceType,                            !- Feature Name 5
  String,                                 !- Feature Data Type 5
  Roof;                                   !- Feature Value 5

OS:ThermalZone,
  {5432ba3f-b312-4c4e-aee5-7e31c225dc49}, !- Handle
  attic - vented,                         !- Name
  1,                                      !- Multiplier
  ,                                       !- Ceiling Height {m}
  356.390921899745,                       !- Volume {m3}
  ,                                       !- Floor Area {m2}
  ,                                       !- Zone Inside Convection Algorithm
  ,                                       !- Zone Outside Convection Algorithm
  ,                                       !- Zone Conditioning Equipment List Name
  {3df25a61-a790-4bdb-837b-13a249309b51}, !- Zone Air Inlet Port List
  {333f9585-ed33-4d93-8bfe-e944aa138222}, !- Zone Air Exhaust Port List
  {703a3ea7-400a-4cfe-8ccf-455df6c8a6d7}, !- Zone Air Node Name
  {b66e24b6-65df-41ea-b37f-3f93900f9929}, !- Zone Return Air Port List
  ,                                       !- Primary Daylighting Control Name
  ,                                       !- Fraction of Zone Controlled by Primary Daylighting Control
  ,                                       !- Secondary Daylighting Control Name
  ,                                       !- Fraction of Zone Controlled by Secondary Daylighting Control
  ,                                       !- Illuminance Map Name
  ,                                       !- Group Rendering Name
  ,                                       !- Thermostat Name
  No;                                     !- Use Ideal Air Loads

OS:Node,
  {6f01b8af-bfb2-43fc-af08-1abb0c717e32}, !- Handle
  Node 2,                                 !- Name
  {703a3ea7-400a-4cfe-8ccf-455df6c8a6d7}, !- Inlet Port
  ;                                       !- Outlet Port

OS:Connection,
  {703a3ea7-400a-4cfe-8ccf-455df6c8a6d7}, !- Handle
  {5432ba3f-b312-4c4e-aee5-7e31c225dc49}, !- Source Object
  11,                                     !- Outlet Port
  {6f01b8af-bfb2-43fc-af08-1abb0c717e32}, !- Target Object
  2;                                      !- Inlet Port

OS:PortList,
  {3df25a61-a790-4bdb-837b-13a249309b51}, !- Handle
  {5432ba3f-b312-4c4e-aee5-7e31c225dc49}; !- HVAC Component

OS:PortList,
  {333f9585-ed33-4d93-8bfe-e944aa138222}, !- Handle
  {5432ba3f-b312-4c4e-aee5-7e31c225dc49}; !- HVAC Component

OS:PortList,
  {b66e24b6-65df-41ea-b37f-3f93900f9929}, !- Handle
  {5432ba3f-b312-4c4e-aee5-7e31c225dc49}; !- HVAC Component

OS:Sizing:Zone,
  {89dab7db-015f-4e11-9f39-d49992d73197}, !- Handle
  {5432ba3f-b312-4c4e-aee5-7e31c225dc49}, !- Zone or ZoneList Name
  SupplyAirTemperature,                   !- Zone Cooling Design Supply Air Temperature Input Method
  14,                                     !- Zone Cooling Design Supply Air Temperature {C}
  11.11,                                  !- Zone Cooling Design Supply Air Temperature Difference {deltaC}
  SupplyAirTemperature,                   !- Zone Heating Design Supply Air Temperature Input Method
  40,                                     !- Zone Heating Design Supply Air Temperature {C}
  11.11,                                  !- Zone Heating Design Supply Air Temperature Difference {deltaC}
  0.0085,                                 !- Zone Cooling Design Supply Air Humidity Ratio {kg-H2O/kg-air}
  0.008,                                  !- Zone Heating Design Supply Air Humidity Ratio {kg-H2O/kg-air}
  ,                                       !- Zone Heating Sizing Factor
  ,                                       !- Zone Cooling Sizing Factor
  DesignDay,                              !- Cooling Design Air Flow Method
  ,                                       !- Cooling Design Air Flow Rate {m3/s}
  ,                                       !- Cooling Minimum Air Flow per Zone Floor Area {m3/s-m2}
  ,                                       !- Cooling Minimum Air Flow {m3/s}
  ,                                       !- Cooling Minimum Air Flow Fraction
  DesignDay,                              !- Heating Design Air Flow Method
  ,                                       !- Heating Design Air Flow Rate {m3/s}
  ,                                       !- Heating Maximum Air Flow per Zone Floor Area {m3/s-m2}
  ,                                       !- Heating Maximum Air Flow {m3/s}
  ,                                       !- Heating Maximum Air Flow Fraction
  No,                                     !- Account for Dedicated Outdoor Air System
  NeutralSupplyAir,                       !- Dedicated Outdoor Air System Control Strategy
  autosize,                               !- Dedicated Outdoor Air Low Setpoint Temperature for Design {C}
  autosize,                               !- Dedicated Outdoor Air High Setpoint Temperature for Design {C}
  Sensible Load Only No Latent Load,      !- Zone Load Sizing Method
  HumidityRatioDifference,                !- Zone Latent Cooling Design Supply Air Humidity Ratio Input Method
  ,                                       !- Zone Dehumidification Design Supply Air Humidity Ratio {kgWater/kgDryAir}
  0.005,                                  !- Zone Cooling Design Supply Air Humidity Ratio Difference {kgWater/kgDryAir}
  HumidityRatioDifference,                !- Zone Latent Heating Design Supply Air Humidity Ratio Input Method
  ,                                       !- Zone Humidification Design Supply Air Humidity Ratio {kgWater/kgDryAir}
  0.005,                                  !- Zone Humidification Design Supply Air Humidity Ratio Difference {kgWater/kgDryAir}
  ,                                       !- Zone Humidistat Dehumidification Set Point Schedule Name
  ,                                       !- Zone Humidistat Humidification Set Point Schedule Name
  ,                                       !- Design Zone Air Distribution Effectiveness in Cooling Mode
  ,                                       !- Design Zone Air Distribution Effectiveness in Heating Mode
  ,                                       !- Design Zone Secondary Recirculation Fraction {dimensionless}
  ,                                       !- Design Minimum Zone Ventilation Efficiency {dimensionless}
  Coincident;                             !- Sizing Option

OS:ZoneHVAC:EquipmentList,
  {a56c2c36-fa1c-4e53-9c24-dbe70f517148}, !- Handle
  Zone HVAC Equipment List 2,             !- Name
  {5432ba3f-b312-4c4e-aee5-7e31c225dc49}; !- Thermal Zone

OS:AdditionalProperties,
  {9e76810f-e896-4117-81aa-31bf0fdb0649}, !- Handle
  {5432ba3f-b312-4c4e-aee5-7e31c225dc49}, !- Object Name
  ObjectType,                             !- Feature Name 1
  String,                                 !- Feature Data Type 1
  attic - vented;                         !- Feature Value 1

OS:Space,
  {213559e1-22cd-4b1f-b473-c7e8c0b4ce30}, !- Handle
  attic - vented 1,                       !- Name
  ,                                       !- Space Type Name
  ,                                       !- Default Construction Set Name
  ,                                       !- Default Schedule Set Name
  ,                                       !- Direction of Relative North {deg}
  ,                                       !- X Origin {m}
  ,                                       !- Y Origin {m}
  ,                                       !- Z Origin {m}
  ,                                       !- Building Story Name
  {5432ba3f-b312-4c4e-aee5-7e31c225dc49}, !- Thermal Zone Name
  ,                                       !- Part of Total Floor Area
  ,                                       !- Design Specification Outdoor Air Object Name
  ,                                       !- Building Unit Name
  356.390921899745;                       !- Volume {m3}

OS:Material,