
OS:Version,
  {e98f81fd-c4d8-4571-a61e-8fec948ddb33}, !- Handle
  3.9.0;                                  !- Version Identifier

OS:SimulationControl,
  {1f142a9c-470a-4c91-96d4-ed8b1e6da094}, !- Handle
  ,                                       !- Do Zone Sizing Calculation
  ,                                       !- Do System Sizing Calculation
  ,                                       !- Do Plant Sizing Calculation
  No;                                     !- Run Simulation for Sizing Periods

OS:Timestep,
  {c8245e8a-db0d-4b58-bb99-4b4deefcc580}, !- Handle
  1;                                      !- Number of Timesteps per Hour

OS:ShadowCalculation,
  {d7d5519f-0ae9-4ccd-8323-92c4c8dc3a3e}, !- Handle
  PolygonClipping,                        !- Shading Calculation Method
  ,                                       !- Shading Calculation Update Frequency Method
  20,                                     !- Shading Calculation Update Frequency
  200,                                    !- Maximum Figures in Shadow Overlap Calculations
  ,                                       !- Polygon Clipping Algorithm
  512,                                    !- Pixel Counting Resolution
  ,                                       !- Sky Diffuse Modeling Algorithm
  No,                                     !- Output External Shading Calculation Results
  No,                                     !- Disable Self-Shading Within Shading Zone Groups
  No;                                     !- Disable Self-Shading From Shading Zone Groups to Other Zones

OS:SurfaceConvectionAlgorithm:Outside,
  {cef36c44-ff11-4d36-938b-792f6450fa86}, !- Handle
  DOE-2;                                  !- Algorithm

OS:SurfaceConvectionAlgorithm:Inside,
  {102294e6-1933-4910-a843-a53b47703e3a}, !- Handle
  TARP;                                   !- Algorithm

OS:ZoneCapacitanceMultiplier:ResearchSpecial,
  {b30593c7-af1f-4be0-bb28-3256587d9687}, !- Handle
  7,                                      !- Temperature Capacity Multiplier
  15,                                     !- Humidity Capacity Multiplier
  ;                                       !- Carbon Dioxide Capacity Multiplier

OS:ConvergenceLimits,
  {cc65add8-e3fd-4746-a44f-f397f8a5a24b}, !- Handle
  0;                                      !- Minimum System Timestep {minutes}

OS:RunPeriod,
  {6d84bd1c-9bef-4f05-b5d1-8ceedb135149}, !- Handle
  Run Period 1,                           !- Name
  1,                                      !- Begin Month
  1,                                      !- Begin Day of Month
  12,                                     !- End Month
  31,                                     !- End Day of Month
  ,                                       !- Use Weather File Holidays and Special Days
  ,                                       !- Use Weather File Daylight Saving Period
  ,                                       !- Apply Weekend Holiday Rule
  ,                                       !- Use Weather File Rain Indicators
  ,                                       !- Use Weather File Snow Indicators
  ;                                       !- Number of Times Runperiod to be Repeated

OS:PerformancePrecisionTradeoffs,
  {054a7df3-7c45-40de-a4b2-7aa632585af2}, !- Handle
  ,                                       !- Use Coil Direct Solutions
  CarrollMRT;                             !- Zone Radiant Exchange Algorithm

OS:WeatherFile,
  {b20ce381-a9c4-4892-869c-b0870de19e4f}, !- Handle
  Buffalo Niagara Intl Ap,                !- City
  NY,                                     !- State Province Region
  USA,                                    !- Country
  TMY3,                                   !- Data Source
  725280,                                 !- WMO Number
  42.93,                                  !- Latitude {deg}
  -78.73,                                 !- Longitude {deg}
  -5,                                     !- Time Zone {hr}
  215,                                    !- Elevation {m}
  /Users/nmoore/github/urbanopt-example-geojson-project/example_project/weather/USA_NY_Buffalo-Greater.Buffalo.Intl.AP.725280_TMY3.epw, !- Url
  6B50E0FF,                               !- Checksum
  ,                                       !- Start Date Actual Year
  Sunday;                                 !- Start Day of Week

OS:YearDescription,
  {02968129-2191-478e-8c91-1ff1d94f1b53}, !- Handle
  2007,                                   !- Calendar Year
  ,                                       !- Day of Week for Start Day
  ;                                       !- Is Leap Year

OS:Site,
  {2ccbf118-e3b4-4515-9079-002f89103a4a}, !- Handle
  Buffalo Niagara Intl Ap_NY,             !- Name
  42.93,                                  !- Latitude {deg}
  -78.73,                                 !- Longitude {deg}
  -5,                                     !- Time Zone {hr}
  215,                                    !- Elevation {m}
  Suburbs,                                !- Terrain
  Yes;                                    !- Keep Site Location Information

OS:RunPeriodControl:DaylightSavingTime,
  {fc22c6cd-a2b1-423a-bc21-1ecfb9506578}, !- Handle
  Mar 12,                                 !- Start Date
  Nov 5;                                  !- End Date

OS:Site:GroundTemperature:Shallow,
  {78dc16bb-f349-426d-b29d-08eade08018e}, !- Handle
  4.30207395723828,                       !- January Surface Ground Temperature {C}
  2.29327249652502,                       !- February Surface Ground Temperature {C}
  2.13240047156047,                       !- March Surface Ground Temperature {C}
  3.08567940719286,                       !- April Surface Ground Temperature {C}
  6.91256312497526,                       !- May Surface Ground Temperature {C}
  10.7216195949507,                       !- June Surface Ground Temperature {C}
  14.0238679822574,                       !- July Surface Ground Temperature {C}
  16.1157611184724,                       !- August Surface Ground Temperature {C}
  16.2934789303462,                       !- September Surface Ground Temperature {C}
  14.5920754632847,                       !- October Surface Ground Temperature {C}
  11.374036348653,                        !- November Surface Ground Temperature {C}
  7.68182621661674;                       !- December Surface Ground Temperature {C}

OS:ThermalZone,
  {94be774e-5e2c-42ab-9e3f-06722268c835}, !- Handle
  conditioned space,                      !- Name
  1,                                      !- Multiplier
  ,                                       !- Ceiling Height {m}
  692.06373070848,                        !- Volume {m3}
  ,                                       !- Floor Area {m2}
  ,                                       !- Zone Inside Convection Algorithm
  ,                                       !- Zone Outside Convection Algorithm
  ,                                       !- Zone Conditioning Equipment List Name
  {b2a162fe-ef4f-4c3a-a0a4-d9c79c8ff665}, !- Zone Air Inlet Port List
  {0e596b1e-f0cc-4acd-ab04-baa758413bb0}, !- Zone Air Exhaust Port List
  {5ecefe2e-1e7f-4a9c-b65f-dced0e4796c2}, !- Zone Air Node Name
  {32a6dbcf-8216-4713-9a2b-dfef41980d27}, !- Zone Return Air Port List
  ,                                       !- Primary Daylighting Control Name
  ,                                       !- Fraction of Zone Controlled by Primary Daylighting Control
  ,                                       !- Secondary Daylighting Control Name
  ,                                       !- Fraction of Zone Controlled by Secondary Daylighting Control
  ,                                       !- Illuminance Map Name
  ,                                       !- Group Rendering Name
  {bbcd2497-4e7e-4414-83d2-b5b45cc794c3}, !- Thermostat Name
  No;                                     !- Use Ideal Air Loads

OS:Node,
  {661e4432-87b5-4830-b6d8-8c8108d5c93a}, !- Handle
  Node 1,                                 !- Name
  {5ecefe2e-1e7f-4a9c-b65f-dced0e4796c2}, !- Inlet Port
  ;                                       !- Outlet Port

OS:Connection,
  {5ecefe2e-1e7f-4a9c-b65f-dced0e4796c2}, !- Handle
  {94be774e-5e2c-42ab-9e3f-06722268c835}, !- Source Object
  11,                                     !- Outlet Port
  {661e4432-87b5-4830-b6d8-8c8108d5c93a}, !- Target Object
  2;                                      !- Inlet Port

OS:PortList,
  {b2a162fe-ef4f-4c3a-a0a4-d9c79c8ff665}, !- Handle
  {94be774e-5e2c-42ab-9e3f-06722268c835}, !- HVAC Component
  {93346f1b-947b-4823-ba32-89c5d36a9979}, !- Port 1
  {33d27db0-46a6-41a9-badc-2a393eb6bcaa}; !- Port 2

OS:PortList,
  {0e596b1e-f0cc-4acd-ab04-baa758413bb0}, !- Handle
  {94be774e-5e2c-42ab-9e3f-06722268c835}; !- HVAC Component

OS:PortList,
  {32a6dbcf-8216-4713-9a2b-dfef41980d27}, !- Handle
  {94be774e-5e2c-42ab-9e3f-06722268c835}, !- HVAC Component
  {45b8e1b2-b546-472d-9774-7d24c10ca4d5}, !- Port 1
  {a778d81d-8ad8-456f-9be0-5ca872baa400}; !- Port 2

OS:Sizing:Zone,
  {7a6bf0ad-8bb3-465d-9b94-c4f9f82dd41e}, !- Handle
  {94be774e-5e2c-42ab-9e3f-06722268c835}, !- Zone or ZoneList Name
  SupplyAirTemperature,                   !- Zone Cooling Design Supply Air Temperature Input Method
  14,                                     !- Zone Cooling Design Supply Air Temperature {C}
  11.11,                                  !- Zone Cooling Design Supply Air Temperature Difference {deltaC}
  SupplyAirTemperature,                   !- Zone Heating Design Supply Air Temperature Input Method
  40,                                     !- Zone Heating Design Supply Air Temperature {C}
  11.11,                                  !- Zone Heating Design Supply Air Temperature Difference {deltaC}
  0.0085,                                 !- Zone Cooling Design Supply Air Humidity Ratio {kg-H2O/kg-air}
  0.008,                                  !- Zone Heating Design Supply Air Humidity Ratio {kg-H2O/kg-air}
  ,                                       !- Zone Heating Sizing Factor
  ,                                       !- Zone Cooling Sizing Factor
  DesignDay,                              !- Cooling Design Air Flow Method
  ,                                       !- Cooling Design Air Flow Rate {m3/s}
  ,                                       !- Cooling Minimum Air Flow per Zone Floor Area {m3/s-m2}
  ,                                       !- Cooling Minimum Air Flow {m3/s}
  ,                                       !- Cooling Minimum Air Flow Fraction
  DesignDay,                              !- Heating Design Air Flow Method
  ,                                       !- Heating Design Air Flow Rate {m3/s}
  ,                                       !- Heating Maximum Air Flow per Zone Floor Area {m3/s-m2}
  ,                                       !- Heating Maximum Air Flow {m3/s}
  ,                                       !- Heating Maximum Air Flow Fraction
  No,                                     !- Account for Dedicated Outdoor Air System
  NeutralSupplyAir,                       !- Dedicated Outdoor Air System Control Strategy
  autosize,                               !- Dedicated Outdoor Air Low Setpoint Temperature for Design {C}
  autosize,                               !- Dedicated Outdoor Air High Setpoint Temperature for Design {C}
  Sensible Load Only No Latent Load,      !- Zone Load Sizing Method
  HumidityRatioDifference,                !- Zone Latent Cooling Design Supply Air Humidity Ratio Input Method
  ,                                       !- Zone Dehumidification Design Supply Air Humidity Ratio {kgWater/kgDryAir}
  0.005,                                  !- Zone Cooling Design Supply Air Humidity Ratio Difference {kgWater/kgDryAir}
  HumidityRatioDifference,                !- Zone Latent Heating Design Supply Air Humidity Ratio Input Method
  ,                                       !- Zone Humidification Design Supply Air Humidity Ratio {kgWater/kgDryAir}
  0.005,                                  !- Zone Humidification Design Supply Air Humidity Ratio Difference {kgWater/kgDryAir}
  ,                                       !- Zone Humidistat Dehumidification Set Point Schedule Name
  ,                                       !- Zone Humidistat Humidification Set Point Schedule Name
  ,                                       !- Design Zone Air Distribution Effectiveness in Cooling Mode
  ,                                       !- Design Zone Air Distribution Effectiveness in Heating Mode
  ,                                       !- Design Zone Secondary Recirculation Fraction {dimensionless}
  ,                                       !- Design Minimum Zone Ventilation Efficiency {dimensionless}
  Coincident;                             !- Sizing Option

OS:ZoneHVAC:EquipmentList,
  {a50e0ffb-9147-486c-92a9-3e09a73cf891}, !- Handle
  Zone HVAC Equipment List 1,             !- Name
  {94be774e-5e2c-42ab-9e3f-06722268c835}, !- Thermal Zone
  ,                                       !- Load Distribution Scheme
  {67b7b365-ff78-4e9d-ad50-1bbf5e1d5a4e}, !- Zone Equipment 1
  1,                                      !- Zone Equipment Cooling Sequence 1
  1,                                      !- Zone Equipment Heating or No-Load Sequence 1
  {38ff84c9-1790-414d-b014-79d16e9378a5}, !- Zone Equipment Sequential Cooling Fraction Schedule Name 1
  {f73d6f9e-cd25-4b03-9be1-e10c5d536f29}, !- Zone Equipment Sequential Heating Fraction Schedule Name 1
  {796ab563-8ac5-43c8-ac41-7104169a5244}, !- Zone Equipment 2
  2,                                      !- Zone Equipment Cooling Sequence 2
  2,                                      !- Zone Equipment Heating or No-Load Sequence 2
  {f2d1089e-ba43-489f-8c56-96a5cd0d8c52}, !- Zone Equipment Sequential Cooling Fraction Schedule Name 2
  {c1cb0622-81a6-4669-ae1d-e975f5204778}; !- Zone Equipment Sequential Heating Fraction Schedule Name 2

OS:AdditionalProperties,
  {935a1b1b-20cb-455c-9b1c-1db5430b1d8b}, !- Handle
  {94be774e-5e2c-42ab-9e3f-06722268c835}, !- Object Name
  ObjectType,                             !- Feature Name 1
  String,                                 !- Feature Data Type 1
  conditioned space;                      !- Feature Value 1

OS:Space,
  {97190225-09a8-42c0-aa8a-83282ce1f08e}, !- Handle
  conditioned space 1,                    !- Name
  ,                                       !- Space Type Name
  ,                                       !- Default Construction Set Name
  ,                                       !- Default Schedule Set Name
  ,                                       !- Direction of Relative North {deg}
  ,                                       !- X Origin {m}
  ,                                       !- Y Origin {m}
  ,                                       !- Z Origin {m}
  ,                                       !- Building Story Name
  {94be774e-5e2c-42ab-9e3f-06722268c835}, !- Thermal Zone Name
  ,                                       !- Part of Total Floor Area
  ,                                       !- Design Specification Outdoor Air Object Name
  ,                                       !- Building Unit Name
  692.06373070848;                        !- Volume {m3}

OS:Schedule:Ruleset,
  {5af2fb5c-7b01-49db-89cd-32849140a4cf}, !- Handle
  heating setpoint,                       !- Name
  {ea6397e3-b840-4c4f-b26e-4164db57b768}, !- Schedule Type Limits Name
  {7a18e0d0-d524-487d-8623-ea41172bc484}; !- Default Day Schedule Name

OS:Schedule:Day,
  {7a18e0d0-d524-487d-8623-ea41172bc484}, !- Handle
  heating setpoint default day,           !- Name
  {ea6397e3-b840-4c4f-b26e-4164db57b768}, !- Schedule Type Limits Name
  ,                                       !- Interpolate to Timestep
  24,                                     !- Hour 1
  0,                                      !- Minute 1
  0;                                      !- Value Until Time 1

OS:Schedule:Rule,
  {341d92e2-fcb7-452d-a1ec-d98c83003ad4}, !- Handle
  heating setpoint allday rule,           !- Name
  {5af2fb5c-7b01-49db-89cd-32849140a4cf}, !- Schedule Ruleset Name
  0,                                      !- Rule Order
  {a64b4da4-7e19-4808-822a-f32e868dafce}, !- Day Schedule Name
  Yes,                                    !- Apply Sunday
  Yes,                                    !- Apply Monday
  Yes,                                    !- Apply Tuesday
  Yes,                                    !- Apply Wednesday
  Yes,                                    !- Apply Thursday
  Yes,                                    !- Apply Friday
  Yes,                                    !- Apply Saturday
  DateRange,                              !- Date Specification Type
  1,                                      !- Start Month
  1,                                      !- Start Day
  12,                                     !- End Month
  31;                                     !- End Day

OS:Schedule:Day,
  {a64b4da4-7e19-4808-822a-f32e868dafce}, !- Handle
  heating setpoint day,                   !- Name
  {ea6397e3-b840-4c4f-b26e-4164db57b768}, !- Schedule Type Limits Name
  ,                                       !- Interpolate to Timestep
  24,                                     !- Hour 1
  0,                                      !- Minute 1
  20;                                     !- Value Until Time 1

OS:Schedule:Ruleset,
  {dea70272-7003-446d-a84a-14e3cabc2688}, !- Handle
  cooling setpoint,                       !- Name
  {ea6397e3-b840-4c4f-b26e-4164db57b768}, !- Schedule Type Limits Name
  {d2513251-da6d-4996-a5a2-96706e3b5536}; !- Default Day Schedule Name

OS:Schedule:Day,
  {d2513251-da6d-4996-a5a2-96706e3b5536}, !- Handle
  cooling setpoint default day,           !- Name
  {ea6397e3-b840-4c4f-b26e-4164db57b768}, !- Schedule Type Limits Name
  ,                                       !- Interpolate to Timestep
  24,                                     !- Hour 1
  0,                                      !- Minute 1
  0;                                      !- Value Until Time 1

OS:Schedule:Rule,
  {5930b179-4290-431a-bb65-71552ec43db2}, !- Handle
  cooling setpoint allday rule,           !- Name
  {dea70272-7003-446d-a84a-14e3cabc2688}, !- Schedule Ruleset Name
  0,                                      !- Rule Order
  {f6eead91-1ebf-4b84-bad6-5a9ed6295abb}, !- Day Schedule Name
  Yes,                                    !- Apply Sunday
  Yes,                                    !- Apply Monday
  Yes,                                    !- Apply Tuesday
  Yes,                                    !- Apply Wednesday
  Yes,                                    !- Apply Thursday
  Yes,                                    !- Apply Friday
  Yes,                                    !- Apply Saturday
  DateRange,                              !- Date Specification Type
  1,                                      !- Start Month
  1,                                      !- Start Day
  12,                                     !- End Month
  31;                                     !- End Day

OS:Schedule:Day,
  {f6eead91-1ebf-4b84-bad6-5a9ed6295abb}, !- Handle
  cooling setpoint day,                   !- Name
  {ea6397e3-b840-4c4f-b26e-4164db57b768}, !- Schedule Type Limits Name
  ,                                       !- Interpolate to Timestep
  24,                                     !- Hour 1
  0,                                      !- Minute 1
  25.5555555555556;                       !- Value Until Time 1

OS:ThermostatSetpoint:DualSetpoint,
  {bbcd2497-4e7e-4414-83d2-b5b45cc794c3}, !- Handle
  conditioned space temperature setpoint, !- Name
  {5af2fb5c-7b01-49db-89cd-32849140a4cf}, !- Heating Setpoint Temperature Schedule Name
  {dea70272-7003-446d-a84a-14e3cabc2688}, !- Cooling Setpoint Temperature Schedule Name
  0;                                      !- Temperature Difference Between Cutout And Setpoint {deltaC}

OS:ScheduleTypeLimits,
  {ea6397e3-b840-4c4f-b26e-4164db57b768}, !- Handle
  Temperature,                            !- Name
  ,                                       !- Lower Limit Value
  ,                                       !- Upper Limit Value
  Continuous,                             !- Numeric Type
  Temperature;                            !- Unit Type

OS:Surface,
  {5395e625-4866-499a-80d1-e1768671422f}, !- Handle
  Roof1,                                  !- Name
  RoofCeiling,                            !- Surface Type
  {f1a92f90-94bf-4f9e-bec0-5f6e0e32d4be}, !- Construction Name
  {1c4758eb-071d-49fa-a066-26a5020ba3e3}, !- Space Name
  Outdoors,                               !- Outside Boundary Condition
  ,                                       !- Outside Boundary Condition Object
  SunExposed,                             !- Sun Exposure
  WindExposed,                            !- Wind Exposure
  ,                                       !- View Factor to Ground
  ,                                       !- Number of Vertices
  -26.9347048849634, 58.0557891618865, 2.4384, !- X,Y,Z Vertex 1 {m}
  -26.9347048849634, 46.7895631136661, 8.0715130241102, !- X,Y,Z Vertex 2 {m}
  -14.3386812381136, 46.7895631136661, 8.0715130241102, !- X,Y,Z Vertex 3 {m}
  -14.3386812381136, 58.0557891618865, 2.4384; !- X,Y,Z Vertex 4 {m}

OS:AdditionalProperties,
  {d50177f8-db63-41c7-8d33-ef3f120b260a}, !- Handle
  {5395e625-4866-499a-80d1-e1768671422f}, !- Object Name
  Length,                                 !- Feature Name 1
  Double,                                 !- Feature Data Type 1
  41.325536899113608,                     !- Feature Value 1
  Width,                                  !- Feature Name 2
  Double,                                 !- Feature Data Type 2
  41.325536899113601,                     !- Feature Value 2
  Azimuth,                                !- Feature Name 3
  Integer,                                !- Feature Data Type 3
  0,                                      !- Feature Value 3
  Tilt,                                   !- Feature Name 4
  Double,                                 !- Feature Data Type 4
  0.5,                                    !- Feature Value 4
  SurfaceType,                            !- Feature Name 5
  String,                                 !- Feature Data Type 5
  Roof;                                   !- Feature Value 5

OS:ThermalZone,
  {2e2ac640-aa13-4154-bd2c-c175b59ccf73}, !- Handle
  attic - vented,                         !- Name
  1,                                      !- Multiplier
  ,                                       !- Ceiling Height {m}
  356.389957095237,                       !- Volume {m3}
  ,                                       !- Floor Area {m2}
  ,                                       !- Zone Inside Convection Algorithm
  ,                                       !- Zone Outside Convection Algorithm
  ,                                       !- Zone Conditioning Equipment List Name
  {bec52f05-a86c-4a5f-8147-6620bcee29f7}, !- Zone Air Inlet Port List
  {c6e69828-6bc6-4d0d-9497-551b49326295}, !- Zone Air Exhaust Port List
  {1b2a7de4-0242-4f01-8a69-4882bc063ffa}, !- Zone Air Node Name
  {0ca69e56-618c-4845-9142-a974bf4b0366}, !- Zone Return Air Port List
  ,                                       !- Primary Daylighting Control Name
  ,                                       !- Fraction of Zone Controlled by Primary Daylighting Control
  ,                                       !- Secondary Daylighting Control Name
  ,                                       !- Fraction of Zone Controlled by Secondary Daylighting Control
  ,                                       !- Illuminance Map Name
  ,                                       !- Group Rendering Name
  ,                                       !- Thermostat Name
  No;                                     !- Use Ideal Air Loads

OS:Node,
  {49d38c20-0705-4d1e-8930-a8308a418fe3}, !- Handle
  Node 2,                                 !- Name
  {1b2a7de4-0242-4f01-8a69-4882bc063ffa}, !- Inlet Port
  ;                                       !- Outlet Port

OS:Connection,
  {1b2a7de4-0242-4f01-8a69-4882bc063ffa}, !- Handle
  {2e2ac640-aa13-4154-bd2c-c175b59ccf73}, !- Source Object
  11,                                     !- Outlet Port
  {49d38c20-0705-4d1e-8930-a8308a418fe3}, !- Target Object
  2;                                      !- Inlet Port

OS:PortList,
  {bec52f05-a86c-4a5f-8147-6620bcee29f7}, !- Handle
  {2e2ac640-aa13-4154-bd2c-c175b59ccf73}; !- HVAC Component

OS:PortList,
  {c6e69828-6bc6-4d0d-9497-551b49326295}, !- Handle
  {2e2ac640-aa13-4154-bd2c-c175b59ccf73}; !- HVAC Component

OS:PortList,
  {0ca69e56-618c-4845-9142-a974bf4b0366}, !- Handle
  {2e2ac640-aa13-4154-bd2c-c175b59ccf73}; !- HVAC Component

OS:Sizing:Zone,
  {27a899b1-be31-4b63-b456-7f78ab7ff40c}, !- Handle
  {2e2ac640-aa13-4154-bd2c-c175b59ccf73}, !- Zone or ZoneList Name
  SupplyAirTemperature,                   !- Zone Cooling Design Supply Air Temperature Input Method
  14,                                     !- Zone Cooling Design Supply Air Temperature {C}
  11.11,                                  !- Zone Cooling Design Supply Air Temperature Difference {deltaC}
  SupplyAirTemperature,                   !- Zone Heating Design Supply Air Temperature Input Method
  40,                                     !- Zone Heating Design Supply Air Temperature {C}
  11.11,                                  !- Zone Heating Design Supply Air Temperature Difference {deltaC}
  0.0085,                                 !- Zone Cooling Design Supply Air Humidity Ratio {kg-H2O/kg-air}
  0.008,                                  !- Zone Heating Design Supply Air Humidity Ratio {kg-H2O/kg-air}
  ,                                       !- Zone Heating Sizing Factor
  ,                                       !- Zone Cooling Sizing Factor
  DesignDay,                              !- Cooling Design Air Flow Method
  ,                                       !- Cooling Design Air Flow Rate {m3/s}
  ,                                       !- Cooling Minimum Air Flow per Zone Floor Area {m3/s-m2}
  ,                                       !- Cooling Minimum Air Flow {m3/s}
  ,                                       !- Cooling Minimum Air Flow Fraction
  DesignDay,                              !- Heating Design Air Flow Method
  ,                                       !- Heating Design Air Flow Rate {m3/s}
  ,                                       !- Heating Maximum Air Flow per Zone Floor Area {m3/s-m2}
  ,                                       !- Heating Maximum Air Flow {m3/s}
  ,                                       !- Heating Maximum Air Flow Fraction
  No,                                     !- Account for Dedicated Outdoor Air System
  NeutralSupplyAir,                       !- Dedicated Outdoor Air System Control Strategy
  autosize,                               !- Dedicated Outdoor Air Low Setpoint Temperature for Design {C}
  autosize,                               !- Dedicated Outdoor Air High Setpoint Temperature for Design {C}
  Sensible Load Only No Latent Load,      !- Zone Load Sizing Method
  HumidityRatioDifference,                !- Zone Latent Cooling Design Supply Air Humidity Ratio Input Method
  ,                                       !- Zone Dehumidification Design Supply Air Humidity Ratio {kgWater/kgDryAir}
  0.005,                                  !- Zone Cooling Design Supply Air Humidity Ratio Difference {kgWater/kgDryAir}
  HumidityRatioDifference,                !- Zone Latent Heating Design Supply Air Humidity Ratio Input Method
  ,                                       !- Zone Humidification Design Supply Air Humidity Ratio {kgWater/kgDryAir}
  0.005,                                  !- Zone Humidification Design Supply Air Humidity Ratio Difference {kgWater/kgDryAir}
  ,                                       !- Zone Humidistat Dehumidification Set Point Schedule Name
  ,                                       !- Zone Humidistat Humidification Set Point Schedule Name
  ,                                       !- Design Zone Air Distribution Effectiveness in Cooling Mode
  ,                                       !- Design Zone Air Distribution Effectiveness in Heating Mode
  ,                                       !- Design Zone Secondary Recirculation Fraction {dimensionless}
  ,                                       !- Design Minimum Zone Ventilation Efficiency {dimensionless}
  Coincident;                             !- Sizing Option

OS:ZoneHVAC:EquipmentList,
  {b1cba9ec-7514-4d88-8784-b8c2f197769b}, !- Handle
  Zone HVAC Equipment List 2,             !- Name
  {2e2ac640-aa13-4154-bd2c-c175b59ccf73}; !- Thermal Zone

OS:AdditionalProperties,
  {a8eaa9c5-7d8f-4f67-8379-c38d6389ab2c}, !- Handle
  {2e2ac640-aa13-4154-bd2c-c175b59ccf73}, !- Object Name
  ObjectType,                             !- Feature Name 1
  String,                                 !- Feature Data Type 1
  attic - vented;                         !- Feature Value 1

OS:Space,
  {1c4758eb-071d-49fa-a066-26a5020ba3e3}, !- Handle
  attic - vented 1,                       !- Name
  ,                                       !- Space Type Name
  ,                                       !- Default Construction Set Name
  ,                                       !- Default Schedule Set Name
  ,                                       !- Direction of Relative North {deg}
  ,                                       !- X Origin {m}
  ,                                       !- Y Origin {m}
  ,                                       !- Z Origin {m}
  ,                                       !- Building Story Name
  {2e2ac640-aa13-4154-bd2c-c175b59ccf73}, !- Thermal Zone Name
  ,                                       !- Part of Total Floor Area
  ,                                       !- Design Specification Outdoor Air Object Name
  ,                                       !- Building Unit Name
  356.389957095237;                       !- Volume {m3}

OS:Material,