
OS:Version,
  {5b767abc-19ce-4e50-8fb7-a3517da5b569}, !- Handle
  3.9.0;                                  !- Version Identifier

OS:SimulationControl,
  {e3a8d0cf-b58e-4f0c-b9ff-b0014809f990}, !- Handle
  ,                                       !- Do Zone Sizing Calculation
  ,                                       !- Do System Sizing Calculation
  ,                                       !- Do Plant Sizing Calculation
  No;                                     !- Run Simulation for Sizing Periods

OS:Timestep,
  {cef9689b-ed60-4a90-9bce-af1eae3fa0a1}, !- Handle
  1;                                      !- Number of Timesteps per Hour

OS:ShadowCalculation,
  {f59d4f3e-aac7-442a-99dc-8b1a1d0483fb}, !- Handle
  PolygonClipping,                        !- Shading Calculation Method
  ,                                       !- Shading Calculation Update Frequency Method
  20,                                     !- Shading Calculation Update Frequency
  200,                                    !- Maximum Figures in Shadow Overlap Calculations
  ,                                       !- Polygon Clipping Algorithm
  512,                                    !- Pixel Counting Resolution
  ,                                       !- Sky Diffuse Modeling Algorithm
  No,                                     !- Output External Shading Calculation Results
  No,                                     !- Disable Self-Shading Within Shading Zone Groups
  No;                                     !- Disable Self-Shading From Shading Zone Groups to Other Zones

OS:SurfaceConvectionAlgorithm:Outside,
  {7ad23375-7245-49fb-b29c-36fd082eaa76}, !- Handle
  DOE-2;                                  !- Algorithm

OS:SurfaceConvectionAlgorithm:Inside,
  {8e1fe94b-b759-46e5-9300-ea9b5c1de4aa}, !- Handle
  TARP;                                   !- Algorithm

OS:ZoneCapacitanceMultiplier:ResearchSpecial,
  {67cc4988-739c-490b-a913-29c28266c85f}, !- Handle
  7,                                      !- Temperature Capacity Multiplier
  15,                                     !- Humidity Capacity Multiplier
  ;                                       !- Carbon Dioxide Capacity Multiplier

OS:ConvergenceLimits,
  {1ae5a399-2fc6-4ad6-a1e3-885a0d6b2ccd}, !- Handle
  0;                                      !- Minimum System Timestep {minutes}

OS:RunPeriod,
  {a70a6b92-7af8-4ee9-bfac-13830d7a8bb7}, !- Handle
  Run Period 1,                           !- Name
  1,                                      !- Begin Month
  1,                                      !- Begin Day of Month
  12,                                     !- End Month
  31,                                     !- End Day of Month
  ,                                       !- Use Weather File Holidays and Special Days
  ,                                       !- Use Weather File Daylight Saving Period
  ,                                       !- Apply Weekend Holiday Rule
  ,                                       !- Use Weather File Rain Indicators
  ,                                       !- Use Weather File Snow Indicators
  ;                                       !- Number of Times Runperiod to be Repeated

OS:PerformancePrecisionTradeoffs,
  {d40c06c2-9dd3-49ef-96d5-be3a1ec3b816}, !- Handle
  ,                                       !- Use Coil Direct Solutions
  CarrollMRT;                             !- Zone Radiant Exchange Algorithm

OS:WeatherFile,
  {c6e0ed5d-d9b4-4ae3-9466-b8f6444d0bbc}, !- Handle
  Buffalo Niagara Intl Ap,                !- City
  NY,                                     !- State Province Region
  USA,                                    !- Country
  TMY3,                                   !- Data Source
  725280,                                 !- WMO Number
  42.93,                                  !- Latitude {deg}
  -78.73,                                 !- Longitude {deg}
  -5,                                     !- Time Zone {hr}
  215,                                    !- Elevation {m}
  /Users/nmoore/github/urbanopt-example-geojson-project/example_project/weather/USA_NY_Buffalo-Greater.Buffalo.Intl.AP.725280_TMY3.epw, !- Url
  6B50E0FF,                               !- Checksum
  ,                                       !- Start Date Actual Year
  Sunday;                                 !- Start Day of Week

OS:YearDescription,
  {da3c7c34-5ffd-43ff-ab08-21bf84dc2b01}, !- Handle
  2007,                                   !- Calendar Year
  ,                                       !- Day of Week for Start Day
  ;                                       !- Is Leap Year

OS:Site,
  {0e39f429-cc61-4e6b-bbf0-2638fdeaec8c}, !- Handle
  Buffalo Niagara Intl Ap_NY,             !- Name
  42.93,                                  !- Latitude {deg}
  -78.73,                                 !- Longitude {deg}
  -5,                                     !- Time Zone {hr}
  215,                                    !- Elevation {m}
  Suburbs,                                !- Terrain
  Yes;                                    !- Keep Site Location Information

OS:RunPeriodControl:DaylightSavingTime,
  {7646d668-a1c7-4dab-b772-f9c7e123c5f0}, !- Handle
  Mar 12,                                 !- Start Date
  Nov 5;                                  !- End Date

OS:Site:GroundTemperature:Shallow,
  {c49c7e1c-5cc6-4c3a-801b-c22f15006ff9}, !- Handle
  4.30207395723828,                       !- January Surface Ground Temperature {C}
  2.29327249652502,                       !- February Surface Ground Temperature {C}
  2.13240047156047,                       !- March Surface Ground Temperature {C}
  3.08567940719286,                       !- April Surface Ground Temperature {C}
  6.91256312497526,                       !- May Surface Ground Temperature {C}
  10.7216195949507,                       !- June Surface Ground Temperature {C}
  14.0238679822574,                       !- July Surface Ground Temperature {C}
  16.1157611184724,                       !- August Surface Ground Temperature {C}
  16.2934789303462,                       !- September Surface Ground Temperature {C}
  14.5920754632847,                       !- October Surface Ground Temperature {C}
  11.374036348653,                        !- November Surface Ground Temperature {C}
  7.68182621661674;                       !- December Surface Ground Temperature {C}

OS:ThermalZone,
  {36e13110-d5d0-4da9-89a6-4ecb0ecaa6ec}, !- Handle
  conditioned space,                      !- Name
  1,                                      !- Multiplier
  ,                                       !- Ceiling Height {m}
  692.06373070848,                        !- Volume {m3}
  ,                                       !- Floor Area {m2}
  ,                                       !- Zone Inside Convection Algorithm
  ,                                       !- Zone Outside Convection Algorithm
  ,                                       !- Zone Conditioning Equipment List Name
  {fe643a71-0c83-455a-871c-0d80ed5575b9}, !- Zone Air Inlet Port List
  {38d6ce01-c872-49cd-9b12-6c60691fc456}, !- Zone Air Exhaust Port List
  {4c37e27b-c7a1-4a02-849a-5809103989a1}, !- Zone Air Node Name
  {665a0d0b-ab6c-4d30-953e-3b33668c0195}, !- Zone Return Air Port List
  ,                                       !- Primary Daylighting Control Name
  ,                                       !- Fraction of Zone Controlled by Primary Daylighting Control
  ,                                       !- Secondary Daylighting Control Name
  ,                                       !- Fraction of Zone Controlled by Secondary Daylighting Control
  ,                                       !- Illuminance Map Name
  ,                                       !- Group Rendering Name
  {e1d6fc61-4bab-4459-901e-ab5aa73a997c}, !- Thermostat Name
  No;                                     !- Use Ideal Air Loads

OS:Node,
  {f98fb629-ac02-4ebe-ae84-7025339eeec5}, !- Handle
  Node 1,                                 !- Name
  {4c37e27b-c7a1-4a02-849a-5809103989a1}, !- Inlet Port
  ;                                       !- Outlet Port

OS:Connection,
  {4c37e27b-c7a1-4a02-849a-5809103989a1}, !- Handle
  {36e13110-d5d0-4da9-89a6-4ecb0ecaa6ec}, !- Source Object
  11,                                     !- Outlet Port
  {f98fb629-ac02-4ebe-ae84-7025339eeec5}, !- Target Object
  2;                                      !- Inlet Port

OS:PortList,
  {fe643a71-0c83-455a-871c-0d80ed5575b9}, !- Handle
  {36e13110-d5d0-4da9-89a6-4ecb0ecaa6ec}, !- HVAC Component
  {af520682-340c-45ba-b097-86ee9349880a}; !- Port 1

OS:PortList,
  {38d6ce01-c872-49cd-9b12-6c60691fc456}, !- Handle
  {36e13110-d5d0-4da9-89a6-4ecb0ecaa6ec}; !- HVAC Component

OS:PortList,
  {665a0d0b-ab6c-4d30-953e-3b33668c0195}, !- Handle
  {36e13110-d5d0-4da9-89a6-4ecb0ecaa6ec}, !- HVAC Component
  {2740b5f7-847f-41f5-aff2-88a928357597}; !- Port 1

OS:Sizing:Zone,
  {03d817d5-ec99-4cd3-944f-bd3bee3a9404}, !- Handle
  {36e13110-d5d0-4da9-89a6-4ecb0ecaa6ec}, !- Zone or ZoneList Name
  SupplyAirTemperature,                   !- Zone Cooling Design Supply Air Temperature Input Method
  14,                                     !- Zone Cooling Design Supply Air Temperature {C}
  11.11,                                  !- Zone Cooling Design Supply Air Temperature Difference {deltaC}
  SupplyAirTemperature,                   !- Zone Heating Design Supply Air Temperature Input Method
  40,                                     !- Zone Heating Design Supply Air Temperature {C}
  11.11,                                  !- Zone Heating Design Supply Air Temperature Difference {deltaC}
  0.0085,                                 !- Zone Cooling Design Supply Air Humidity Ratio {kg-H2O/kg-air}
  0.008,                                  !- Zone Heating Design Supply Air Humidity Ratio {kg-H2O/kg-air}
  ,                                       !- Zone Heating Sizing Factor
  ,                                       !- Zone Cooling Sizing Factor
  DesignDay,                              !- Cooling Design Air Flow Method
  ,                                       !- Cooling Design Air Flow Rate {m3/s}
  ,                                       !- Cooling Minimum Air Flow per Zone Floor Area {m3/s-m2}
  ,                                       !- Cooling Minimum Air Flow {m3/s}
  ,                                       !- Cooling Minimum Air Flow Fraction
  DesignDay,                              !- Heating Design Air Flow Method
  ,                                       !- Heating Design Air Flow Rate {m3/s}
  ,                                       !- Heating Maximum Air Flow per Zone Floor Area {m3/s-m2}
  ,                                       !- Heating Maximum Air Flow {m3/s}
  ,                                       !- Heating Maximum Air Flow Fraction
  No,                                     !- Account for Dedicated Outdoor Air System
  NeutralSupplyAir,                       !- Dedicated Outdoor Air System Control Strategy
  autosize,                               !- Dedicated Outdoor Air Low Setpoint Temperature for Design {C}
  autosize,                               !- Dedicated Outdoor Air High Setpoint Temperature for Design {C}
  Sensible Load Only No Latent Load,      !- Zone Load Sizing Method
  HumidityRatioDifference,                !- Zone Latent Cooling Design Supply Air Humidity Ratio Input Method
  ,                                       !- Zone Dehumidification Design Supply Air Humidity Ratio {kgWater/kgDryAir}
  0.005,                                  !- Zone Cooling Design Supply Air Humidity Ratio Difference {kgWater/kgDryAir}
  HumidityRatioDifference,                !- Zone Latent Heating Design Supply Air Humidity Ratio Input Method
  ,                                       !- Zone Humidification Design Supply Air Humidity Ratio {kgWater/kgDryAir}
  0.005,                                  !- Zone Humidification Design Supply Air Humidity Ratio Difference {kgWater/kgDryAir}
  ,                                       !- Zone Humidistat Dehumidification Set Point Schedule Name
  ,                                       !- Zone Humidistat Humidification Set Point Schedule Name
  ,                                       !- Design Zone Air Distribution Effectiveness in Cooling Mode
  ,                                       !- Design Zone Air Distribution Effectiveness in Heating Mode
  ,                                       !- Design Zone Secondary Recirculation Fraction {dimensionless}
  ,                                       !- Design Minimum Zone Ventilation Efficiency {dimensionless}
  Coincident;                             !- Sizing Option

OS:ZoneHVAC:EquipmentList,
  {932b73bd-2c52-4950-8763-d5b5a3d25b0f}, !- Handle
  Zone HVAC Equipment List 1,             !- Name
  {36e13110-d5d0-4da9-89a6-4ecb0ecaa6ec}, !- Thermal Zone
  ,                                       !- Load Distribution Scheme
  {e1db8831-9850-4b9e-b58f-889985a79e32}, !- Zone Equipment 1
  1,                                      !- Zone Equipment Cooling Sequence 1
  1,                                      !- Zone Equipment Heating or No-Load Sequence 1
  {916c6310-8e84-41c6-9db6-a193c4c8e9ec}, !- Zone Equipment Sequential Cooling Fraction Schedule Name 1
  {60f15295-6994-4bb2-9ac5-928943419e14}, !- Zone Equipment Sequential Heating Fraction Schedule Name 1
  {c20b1a1f-8120-4510-9f0a-e3903ed14888}, !- Zone Equipment 2
  2,                                      !- Zone Equipment Cooling Sequence 2
  2,                                      !- Zone Equipment Heating or No-Load Sequence 2
  {b6357c42-20fb-4364-a565-335f25207299}, !- Zone Equipment Sequential Cooling Fraction Schedule Name 2
  {5994a992-f3c1-48d1-a90f-5b03bc103636}; !- Zone Equipment Sequential Heating Fraction Schedule Name 2

OS:AdditionalProperties,
  {a9efb4f6-be68-4304-bb3c-4dff6baa4dc1}, !- Handle
  {36e13110-d5d0-4da9-89a6-4ecb0ecaa6ec}, !- Object Name
  ObjectType,                             !- Feature Name 1
  String,                                 !- Feature Data Type 1
  conditioned space;                      !- Feature Value 1

OS:Space,
  {4e5f4ede-6ab2-41f2-917a-403ef6217fff}, !- Handle
  conditioned space 1,                    !- Name
  ,                                       !- Space Type Name
  ,                                       !- Default Construction Set Name
  ,                                       !- Default Schedule Set Name
  ,                                       !- Direction of Relative North {deg}
  ,                                       !- X Origin {m}
  ,                                       !- Y Origin {m}
  ,                                       !- Z Origin {m}
  ,                                       !- Building Story Name
  {36e13110-d5d0-4da9-89a6-4ecb0ecaa6ec}, !- Thermal Zone Name
  ,                                       !- Part of Total Floor Area
  ,                                       !- Design Specification Outdoor Air Object Name
  ,                                       !- Building Unit Name
  692.06373070848;                        !- Volume {m3}

OS:Schedule:Ruleset,
  {d495f428-ce97-47dd-ad3e-003cdb621830}, !- Handle
  heating setpoint,                       !- Name
  {856f844e-6271-4f60-a5ab-b35942ae09d6}, !- Schedule Type Limits Name
  {1c1ebfc2-e0a3-43b2-ba44-c1a40f586b14}; !- Default Day Schedule Name

OS:Schedule:Day,
  {1c1ebfc2-e0a3-43b2-ba44-c1a40f586b14}, !- Handle
  heating setpoint default day,           !- Name
  {856f844e-6271-4f60-a5ab-b35942ae09d6}, !- Schedule Type Limits Name
  ,                                       !- Interpolate to Timestep
  24,                                     !- Hour 1
  0,                                      !- Minute 1
  0;                                      !- Value Until Time 1

OS:Schedule:Rule,
  {5e4fa2aa-bf75-4e63-b787-2c7f6ce5eabc}, !- Handle
  heating setpoint allday rule,           !- Name
  {d495f428-ce97-47dd-ad3e-003cdb621830}, !- Schedule Ruleset Name
  0,                                      !- Rule Order
  {dcc9e68f-e445-4e82-b8d2-d0d14c00f0d0}, !- Day Schedule Name
  Yes,                                    !- Apply Sunday
  Yes,                                    !- Apply Monday
  Yes,                                    !- Apply Tuesday
  Yes,                                    !- Apply Wednesday
  Yes,                                    !- Apply Thursday
  Yes,                                    !- Apply Friday
  Yes,                                    !- Apply Saturday
  DateRange,                              !- Date Specification Type
  1,                                      !- Start Month
  1,                                      !- Start Day
  12,                                     !- End Month
  31;                                     !- End Day

OS:Schedule:Day,
  {dcc9e68f-e445-4e82-b8d2-d0d14c00f0d0}, !- Handle
  heating setpoint day,                   !- Name
  {856f844e-6271-4f60-a5ab-b35942ae09d6}, !- Schedule Type Limits Name
  ,                                       !- Interpolate to Timestep
  24,                                     !- Hour 1
  0,                                      !- Minute 1
  20;                                     !- Value Until Time 1

OS:Schedule:Ruleset,
  {44dda597-5142-490e-9ca3-2d04ba5a050f}, !- Handle
  cooling setpoint,                       !- Name
  {856f844e-6271-4f60-a5ab-b35942ae09d6}, !- Schedule Type Limits Name
  {bf14a521-6a3f-4907-a43e-1d2e7096b4bc}; !- Default Day Schedule Name

OS:Schedule:Day,
  {bf14a521-6a3f-4907-a43e-1d2e7096b4bc}, !- Handle
  cooling setpoint default day,           !- Name
  {856f844e-6271-4f60-a5ab-b35942ae09d6}, !- Schedule Type Limits Name
  ,                                       !- Interpolate to Timestep
  24,                                     !- Hour 1
  0,                                      !- Minute 1
  0;                                      !- Value Until Time 1

OS:Schedule:Rule,
  {90f3fda7-3ead-4242-ad8a-dfeff0539085}, !- Handle
  cooling setpoint allday rule,           !- Name
  {44dda597-5142-490e-9ca3-2d04ba5a050f}, !- Schedule Ruleset Name
  0,                                      !- Rule Order
  {4a7c564e-c74e-4edc-8cbe-b87db4bf6ead}, !- Day Schedule Name
  Yes,                                    !- Apply Sunday
  Yes,                                    !- Apply Monday
  Yes,                                    !- Apply Tuesday
  Yes,                                    !- Apply Wednesday
  Yes,                                    !- Apply Thursday
  Yes,                                    !- Apply Friday
  Yes,                                    !- Apply Saturday
  DateRange,                              !- Date Specification Type
  1,                                      !- Start Month
  1,                                      !- Start Day
  12,                                     !- End Month
  31;                                     !- End Day

OS:Schedule:Day,
  {4a7c564e-c74e-4edc-8cbe-b87db4bf6ead}, !- Handle
  cooling setpoint day,                   !- Name
  {856f844e-6271-4f60-a5ab-b35942ae09d6}, !- Schedule Type Limits Name
  ,                                       !- Interpolate to Timestep
  24,                                     !- Hour 1
  0,                                      !- Minute 1
  25.5555555555556;                       !- Value Until Time 1

OS:ThermostatSetpoint:DualSetpoint,
  {e1d6fc61-4bab-4459-901e-ab5aa73a997c}, !- Handle
  conditioned space temperature setpoint, !- Name
  {d495f428-ce97-47dd-ad3e-003cdb621830}, !- Heating Setpoint Temperature Schedule Name
  {44dda597-5142-490e-9ca3-2d04ba5a050f}, !- Cooling Setpoint Temperature Schedule Name
  0;                                      !- Temperature Difference Between Cutout And Setpoint {deltaC}

OS:ScheduleTypeLimits,
  {856f844e-6271-4f60-a5ab-b35942ae09d6}, !- Handle
  Temperature,                            !- Name
  ,                                       !- Lower Limit Value
  ,                                       !- Upper Limit Value
  Continuous,                             !- Numeric Type
  Temperature;                            !- Unit Type

OS:Surface,
  {a11cef60-79d2-41d4-9389-72307f7f6aa6}, !- Handle
  Roof1,                                  !- Name
  RoofCeiling,                            !- Surface Type
  {f1d00409-143a-4242-a1b9-297a815b9a03}, !- Construction Name
  {cf3b50ee-cd9d-4126-8f41-5de882dbfbda}, !- Space Name
  Outdoors,                               !- Outside Boundary Condition
  ,                                       !- Outside Boundary Condition Object
  SunExposed,                             !- Sun Exposure
  WindExposed,                            !- Wind Exposure
  ,                                       !- View Factor to Ground
  ,                                       !- Number of Vertices
  -26.9347048849634, 58.0557891618865, 2.4384, !- X,Y,Z Vertex 1 {m}
  -26.9347048849634, 46.7895631136661, 8.0715130241102, !- X,Y,Z Vertex 2 {m}
  -14.3386812381136, 46.7895631136661, 8.0715130241102, !- X,Y,Z Vertex 3 {m}
  -14.3386812381136, 58.0557891618865, 2.4384; !- X,Y,Z Vertex 4 {m}

OS:AdditionalProperties,
  {160cfaf8-3fd0-41ae-88b5-ff1aef4a790c}, !- Handle
  {a11cef60-79d2-41d4-9389-72307f7f6aa6}, !- Object Name
  Length,                                 !- Feature Name 1
  Double,                                 !- Feature Data Type 1
  41.325536899113608,                     !- Feature Value 1
  Width,                                  !- Feature Name 2
  Double,                                 !- Feature Data Type 2
  41.325536899113601,                     !- Feature Value 2
  Azimuth,                                !- Feature Name 3
  Integer,                                !- Feature Data Type 3
  0,                                      !- Feature Value 3
  Tilt,                                   !- Feature Name 4
  Double,                                 !- Feature Data Type 4
  0.5,                                    !- Feature Value 4
  SurfaceType,                            !- Feature Name 5
  String,                                 !- Feature Data Type 5
  Roof;                                   !- Feature Value 5

OS:ThermalZone,
  {1cc6bc9e-3dc1-4d2a-9cab-5edef1686648}, !- Handle
  attic - vented,                         !- Name
  1,                                      !- Multiplier
  ,                                       !- Ceiling Height {m}
  356.389957095237,                       !- Volume {m3}
  ,                                       !- Floor Area {m2}
  ,                                       !- Zone Inside Convection Algorithm
  ,                                       !- Zone Outside Convection Algorithm
  ,                                       !- Zone Conditioning Equipment List Name
  {36e01727-c1ba-4c4f-b8f4-8ab8bb3933fa}, !- Zone Air Inlet Port List
  {5a86baba-20f6-43a5-8bd7-c807ae74744f}, !- Zone Air Exhaust Port List
  {432dd490-0e66-439b-832a-f38a4540615f}, !- Zone Air Node Name
  {3b05e227-ee20-4218-880b-de793774ef43}, !- Zone Return Air Port List
  ,                                       !- Primary Daylighting Control Name
  ,                                       !- Fraction of Zone Controlled by Primary Daylighting Control
  ,                                       !- Secondary Daylighting Control Name
  ,                                       !- Fraction of Zone Controlled by Secondary Daylighting Control
  ,                                       !- Illuminance Map Name
  ,                                       !- Group Rendering Name
  ,                                       !- Thermostat Name
  No;                                     !- Use Ideal Air Loads

OS:Node,
  {08dc3c10-eb81-4e6b-a5ff-0ee15e949292}, !- Handle
  Node 2,                                 !- Name
  {432dd490-0e66-439b-832a-f38a4540615f}, !- Inlet Port
  ;                                       !- Outlet Port

OS:Connection,
  {432dd490-0e66-439b-832a-f38a4540615f}, !- Handle
  {1cc6bc9e-3dc1-4d2a-9cab-5edef1686648}, !- Source Object
  11,                                     !- Outlet Port
  {08dc3c10-eb81-4e6b-a5ff-0ee15e949292}, !- Target Object
  2;                                      !- Inlet Port

OS:PortList,
  {36e01727-c1ba-4c4f-b8f4-8ab8bb3933fa}, !- Handle
  {1cc6bc9e-3dc1-4d2a-9cab-5edef1686648}; !- HVAC Component

OS:PortList,
  {5a86baba-20f6-43a5-8bd7-c807ae74744f}, !- Handle
  {1cc6bc9e-3dc1-4d2a-9cab-5edef1686648}; !- HVAC Component

OS:PortList,
  {3b05e227-ee20-4218-880b-de793774ef43}, !- Handle
  {1cc6bc9e-3dc1-4d2a-9cab-5edef1686648}; !- HVAC Component

OS:Sizing:Zone,
  {bcccc7e8-4b0e-44db-81a8-0272119498f5}, !- Handle
  {1cc6bc9e-3dc1-4d2a-9cab-5edef1686648}, !- Zone or ZoneList Name
  SupplyAirTemperature,                   !- Zone Cooling Design Supply Air Temperature Input Method
  14,                                     !- Zone Cooling Design Supply Air Temperature {C}
  11.11,                                  !- Zone Cooling Design Supply Air Temperature Difference {deltaC}
  SupplyAirTemperature,                   !- Zone Heating Design Supply Air Temperature Input Method
  40,                                     !- Zone Heating Design Supply Air Temperature {C}
  11.11,                                  !- Zone Heating Design Supply Air Temperature Difference {deltaC}
  0.0085,                                 !- Zone Cooling Design Supply Air Humidity Ratio {kg-H2O/kg-air}
  0.008,                                  !- Zone Heating Design Supply Air Humidity Ratio {kg-H2O/kg-air}
  ,                                       !- Zone Heating Sizing Factor
  ,                                       !- Zone Cooling Sizing Factor
  DesignDay,                              !- Cooling Design Air Flow Method
  ,                                       !- Cooling Design Air Flow Rate {m3/s}
  ,                                       !- Cooling Minimum Air Flow per Zone Floor Area {m3/s-m2}
  ,                                       !- Cooling Minimum Air Flow {m3/s}
  ,                                       !- Cooling Minimum Air Flow Fraction
  DesignDay,                              !- Heating Design Air Flow Method
  ,                                       !- Heating Design Air Flow Rate {m3/s}
  ,                                       !- Heating Maximum Air Flow per Zone Floor Area {m3/s-m2}
  ,                                       !- Heating Maximum Air Flow {m3/s}
  ,                                       !- Heating Maximum Air Flow Fraction
  No,                                     !- Account for Dedicated Outdoor Air System
  NeutralSupplyAir,                       !- Dedicated Outdoor Air System Control Strategy
  autosize,                               !- Dedicated Outdoor Air Low Setpoint Temperature for Design {C}
  autosize,                               !- Dedicated Outdoor Air High Setpoint Temperature for Design {C}
  Sensible Load Only No Latent Load,      !- Zone Load Sizing Method
  HumidityRatioDifference,                !- Zone Latent Cooling Design Supply Air Humidity Ratio Input Method
  ,                                       !- Zone Dehumidification Design Supply Air Humidity Ratio {kgWater/kgDryAir}
  0.005,                                  !- Zone Cooling Design Supply Air Humidity Ratio Difference {kgWater/kgDryAir}
  HumidityRatioDifference,                !- Zone Latent Heating Design Supply Air Humidity Ratio Input Method
  ,                                       !- Zone Humidification Design Supply Air Humidity Ratio {kgWater/kgDryAir}
  0.005,                                  !- Zone Humidification Design Supply Air Humidity Ratio Difference {kgWater/kgDryAir}
  ,                                       !- Zone Humidistat Dehumidification Set Point Schedule Name
  ,                                       !- Zone Humidistat Humidification Set Point Schedule Name
  ,                                       !- Design Zone Air Distribution Effectiveness in Cooling Mode
  ,                                       !- Design Zone Air Distribution Effectiveness in Heating Mode
  ,                                       !- Design Zone Secondary Recirculation Fraction {dimensionless}
  ,                                       !- Design Minimum Zone Ventilation Efficiency {dimensionless}
  Coincident;                             !- Sizing Option

OS:ZoneHVAC:EquipmentList,
  {d0f932c5-6bd6-43d9-a2ce-ae36dbd4cea2}, !- Handle
  Zone HVAC Equipment List 2,             !- Name
  {1cc6bc9e-3dc1-4d2a-9cab-5edef1686648}; !- Thermal Zone

OS:AdditionalProperties,
  {8f13a564-4546-44a9-8e81-b3fadac2948a}, !- Handle
  {1cc6bc9e-3dc1-4d2a-9cab-5edef1686648}, !- Object Name
  ObjectType,                             !- Feature Name 1
  String,                                 !- Feature Data Type 1
  attic - vented;                         !- Feature Value 1

OS:Space,
  {cf3b50ee-cd9d-4126-8f41-5de882dbfbda}, !- Handle
  attic - vented 1,                       !- Name
  ,                                       !- Space Type Name
  ,                                       !- Default Construction Set Name
  ,                                       !- Default Schedule Set Name
  ,                                       !- Direction of Relative North {deg}
  ,                                       !- X Origin {m}
  ,                                       !- Y Origin {m}
  ,                                       !- Z Origin {m}
  ,                                       !- Building Story Name
  {1cc6bc9e-3dc1-4d2a-9cab-5edef1686648}, !- Thermal Zone Name
  ,                                       !- Part of Total Floor Area
  ,                                       !- Design Specification Outdoor Air Object Name
  ,                                       !- Building Unit Name
  356.389957095237;                       !- Volume {m3}

OS:Material,
  {50602a60-09fa-4078-82a8-9a0f1012f7c7}, !- Handle
  asphalt or fiberglass shingles,         !- Name