
OS:Version,
  {3b5a274a-dd31-4238-bd3d-94c915e96778}, !- Handle
  3.10.0;                                 !- Version Identifier

OS:SimulationControl,
  {cc78f7e8-44f7-489d-9ca1-7ce3bf34f687}, !- Handle
  ,                                       !- Do Zone Sizing Calculation
  ,                                       !- Do System Sizing Calculation
  ,                                       !- Do Plant Sizing Calculation
  No;                                     !- Run Simulation for Sizing Periods

OS:Timestep,
  {4158e3fa-7c3a-4294-8245-8f6d6dc89681}, !- Handle
  1;                                      !- Number of Timesteps per Hour

OS:ShadowCalculation,
  {eabce992-a0f2-4c64-adf2-d90632fecaff}, !- Handle
  PolygonClipping,                        !- Shading Calculation Method
  ,                                       !- Shading Calculation Update Frequency Method
  20,                                     !- Shading Calculation Update Frequency
  200,                                    !- Maximum Figures in Shadow Overlap Calculations
  ,                                       !- Polygon Clipping Algorithm
  512,                                    !- Pixel Counting Resolution
  ,                                       !- Sky Diffuse Modeling Algorithm
  No,                                     !- Output External Shading Calculation Results
  No,                                     !- Disable Self-Shading Within Shading Zone Groups
  No;                                     !- Disable Self-Shading From Shading Zone Groups to Other Zones

OS:SurfaceConvectionAlgorithm:Outside,
  {a55b66af-adff-4d93-8ced-6ce9e38008fc}, !- Handle
  DOE-2;                                  !- Algorithm

OS:SurfaceConvectionAlgorithm:Inside,
  {51e5d236-c11d-41bf-b3d3-75e365971bb9}, !- Handle
  TARP;                                   !- Algorithm

OS:ZoneCapacitanceMultiplier:ResearchSpecial,
  {991111e5-edf6-4c07-8dc3-d5eb3bfdaa55}, !- Handle
  7,                                      !- Temperature Capacity Multiplier
  15,                                     !- Humidity Capacity Multiplier
  ;                                       !- Carbon Dioxide Capacity Multiplier

OS:ConvergenceLimits,
  {3c63a422-e883-4cff-9007-36fe4f603b09}, !- Handle
  0;                                      !- Minimum System Timestep {minutes}

OS:RunPeriod,
  {51b95655-7aba-464b-a4b3-40e6bd953bcb}, !- Handle
  Run Period 1,                           !- Name
  1,                                      !- Begin Month
  1,                                      !- Begin Day of Month
  12,                                     !- End Month
  31,                                     !- End Day of Month
  ,                                       !- Use Weather File Holidays and Special Days
  ,                                       !- Use Weather File Daylight Saving Period
  ,                                       !- Apply Weekend Holiday Rule
  ,                                       !- Use Weather File Rain Indicators
  ,                                       !- Use Weather File Snow Indicators
  ;                                       !- Number of Times Runperiod to be Repeated

OS:PerformancePrecisionTradeoffs,
  {25311e21-7b0e-4afa-a4db-f81f87e724f9}, !- Handle
  ,                                       !- Use Coil Direct Solutions
  CarrollMRT;                             !- Zone Radiant Exchange Algorithm

OS:WeatherFile,
  {a5035ba8-98b9-4710-ad5c-f2b364fbeb03}, !- Handle
  Buffalo Niagara Intl Ap,                !- City
  NY,                                     !- State Province Region
  USA,                                    !- Country
  TMY3,                                   !- Data Source
  725280,                                 !- WMO Number
  42.93,                                  !- Latitude {deg}
  -78.73,                                 !- Longitude {deg}
  -5,                                     !- Time Zone {hr}
  215,                                    !- Elevation {m}
  /Users/nmoore/github/urbanopt-example-geojson-project/example_project/weather/USA_NY_Buffalo-Greater.Buffalo.Intl.AP.725280_TMY3.epw, !- Url
  6B50E0FF,                               !- Checksum
  ,                                       !- Start Date Actual Year
  Sunday;                                 !- Start Day of Week

OS:YearDescription,
  {4f903b10-f5b2-4b15-be38-35339ec5391d}, !- Handle
  2007,                                   !- Calendar Year
  ,                                       !- Day of Week for Start Day
  ;                                       !- Is Leap Year

OS:Site,
  {a01a485c-07f0-4cd1-9dcc-1acae19f97c8}, !- Handle
  Buffalo Niagara Intl Ap_NY,             !- Name
  42.93,                                  !- Latitude {deg}
  -78.73,                                 !- Longitude {deg}
  -5,                                     !- Time Zone {hr}
  215,                                    !- Elevation {m}
  Suburbs,                                !- Terrain
  Yes;                                    !- Keep Site Location Information

OS:RunPeriodControl:DaylightSavingTime,
  {22c73e47-c0a1-4448-9785-73f1e6cba8bf}, !- Handle
  Mar 12,                                 !- Start Date
  Nov 5;                                  !- End Date

OS:Site:GroundTemperature:Shallow,
  {eae11727-db37-4200-8450-a9eaa32eb0cc}, !- Handle
  4.30207395723828,                       !- January Surface Ground Temperature {C}
  2.29327249652502,                       !- February Surface Ground Temperature {C}
  2.13240047156047,                       !- March Surface Ground Temperature {C}
  3.08567940719286,                       !- April Surface Ground Temperature {C}
  6.91256312497526,                       !- May Surface Ground Temperature {C}
  10.7216195949507,                       !- June Surface Ground Temperature {C}
  14.0238679822574,                       !- July Surface Ground Temperature {C}
  16.1157611184724,                       !- August Surface Ground Temperature {C}
  16.2934789303462,                       !- September Surface Ground Temperature {C}
  14.5920754632847,                       !- October Surface Ground Temperature {C}
  11.374036348653,                        !- November Surface Ground Temperature {C}
  7.68182621661674;                       !- December Surface Ground Temperature {C}

OS:ThermalZone,
  {2891f49b-dcb1-44e1-8a2f-e1c2d72b8c20}, !- Handle
  conditioned space,                      !- Name
  1,                                      !- Multiplier
  ,                                       !- Ceiling Height {m}
  692.06373070848,                        !- Volume {m3}
  ,                                       !- Floor Area {m2}
  ,                                       !- Zone Inside Convection Algorithm
  ,                                       !- Zone Outside Convection Algorithm
  ,                                       !- Zone Conditioning Equipment List Name
  {00d6029b-5eff-4403-a003-c1f61e3edaa5}, !- Zone Air Inlet Port List
  {1597ccc9-1c11-4dd6-89d5-8be7666d3466}, !- Zone Air Exhaust Port List
  {07845309-8468-4537-9695-7863d5efdc89}, !- Zone Air Node Name
  {dbc92f0d-8e1b-46a0-9dd6-c3fd552e82e2}, !- Zone Return Air Port List
  ,                                       !- Primary Daylighting Control Name
  ,                                       !- Fraction of Zone Controlled by Primary Daylighting Control
  ,                                       !- Secondary Daylighting Control Name
  ,                                       !- Fraction of Zone Controlled by Secondary Daylighting Control
  ,                                       !- Illuminance Map Name
  ,                                       !- Group Rendering Name
  {2d4ac1ef-e001-49a9-9192-285203554918}, !- Thermostat Name
  No;                                     !- Use Ideal Air Loads

OS:Node,
  {fe9d7afb-1a36-4f0f-ac44-b76e80887609}, !- Handle
  Node 1,                                 !- Name
  {07845309-8468-4537-9695-7863d5efdc89}, !- Inlet Port
  ;                                       !- Outlet Port

OS:Connection,
  {07845309-8468-4537-9695-7863d5efdc89}, !- Handle
  {2891f49b-dcb1-44e1-8a2f-e1c2d72b8c20}, !- Source Object
  11,                                     !- Outlet Port
  {fe9d7afb-1a36-4f0f-ac44-b76e80887609}, !- Target Object
  2;                                      !- Inlet Port

OS:PortList,
  {00d6029b-5eff-4403-a003-c1f61e3edaa5}, !- Handle
  {2891f49b-dcb1-44e1-8a2f-e1c2d72b8c20}, !- HVAC Component
  {ada4dd18-adc4-4062-8565-5c6e506b2872}; !- Port 1

OS:PortList,
  {1597ccc9-1c11-4dd6-89d5-8be7666d3466}, !- Handle
  {2891f49b-dcb1-44e1-8a2f-e1c2d72b8c20}; !- HVAC Component

OS:PortList,
  {dbc92f0d-8e1b-46a0-9dd6-c3fd552e82e2}, !- Handle
  {2891f49b-dcb1-44e1-8a2f-e1c2d72b8c20}, !- HVAC Component
  {5c551e0f-d267-4d0a-b920-f96d5be8779e}; !- Port 1

OS:Sizing:Zone,
  {d442efc1-fb86-4bac-a547-0aae8f02f521}, !- Handle
  {2891f49b-dcb1-44e1-8a2f-e1c2d72b8c20}, !- Zone or ZoneList Name
  SupplyAirTemperature,                   !- Zone Cooling Design Supply Air Temperature Input Method
  14,                                     !- Zone Cooling Design Supply Air Temperature {C}
  11.11,                                  !- Zone Cooling Design Supply Air Temperature Difference {deltaC}
  SupplyAirTemperature,                   !- Zone Heating Design Supply Air Temperature Input Method
  40,                                     !- Zone Heating Design Supply Air Temperature {C}
  11.11,                                  !- Zone Heating Design Supply Air Temperature Difference {deltaC}
  0.0085,                                 !- Zone Cooling Design Supply Air Humidity Ratio {kg-H2O/kg-air}
  0.008,                                  !- Zone Heating Design Supply Air Humidity Ratio {kg-H2O/kg-air}
  ,                                       !- Zone Heating Sizing Factor
  ,                                       !- Zone Cooling Sizing Factor
  DesignDay,                              !- Cooling Design Air Flow Method
  ,                                       !- Cooling Design Air Flow Rate {m3/s}
  ,                                       !- Cooling Minimum Air Flow per Zone Floor Area {m3/s-m2}
  ,                                       !- Cooling Minimum Air Flow {m3/s}
  ,                                       !- Cooling Minimum Air Flow Fraction
  DesignDay,                              !- Heating Design Air Flow Method
  ,                                       !- Heating Design Air Flow Rate {m3/s}
  ,                                       !- Heating Maximum Air Flow per Zone Floor Area {m3/s-m2}
  ,                                       !- Heating Maximum Air Flow {m3/s}
  ,                                       !- Heating Maximum Air Flow Fraction
  No,                                     !- Account for Dedicated Outdoor Air System
  NeutralSupplyAir,                       !- Dedicated Outdoor Air System Control Strategy
  autosize,                               !- Dedicated Outdoor Air Low Setpoint Temperature for Design {C}
  autosize,                               !- Dedicated Outdoor Air High Setpoint Temperature for Design {C}
  Sensible Load Only No Latent Load,      !- Zone Load Sizing Method
  HumidityRatioDifference,                !- Zone Latent Cooling Design Supply Air Humidity Ratio Input Method
  ,                                       !- Zone Dehumidification Design Supply Air Humidity Ratio {kgWater/kgDryAir}
  0.005,                                  !- Zone Cooling Design Supply Air Humidity Ratio Difference {kgWater/kgDryAir}
  HumidityRatioDifference,                !- Zone Latent Heating Design Supply Air Humidity Ratio Input Method
  ,                                       !- Zone Humidification Design Supply Air Humidity Ratio {kgWater/kgDryAir}
  0.005,                                  !- Zone Humidification Design Supply Air Humidity Ratio Difference {kgWater/kgDryAir}
  ,                                       !- Zone Humidistat Dehumidification Set Point Schedule Name
  ,                                       !- Zone Humidistat Humidification Set Point Schedule Name
  ,                                       !- Design Zone Air Distribution Effectiveness in Cooling Mode
  ,                                       !- Design Zone Air Distribution Effectiveness in Heating Mode
  ,                                       !- Design Zone Secondary Recirculation Fraction {dimensionless}
  ,                                       !- Design Minimum Zone Ventilation Efficiency {dimensionless}
  Coincident;                             !- Sizing Option

OS:ZoneHVAC:EquipmentList,
  {745490a8-b002-4fc6-a563-9b8f9751c7d3}, !- Handle
  Zone HVAC Equipment List 1,             !- Name
  {2891f49b-dcb1-44e1-8a2f-e1c2d72b8c20}, !- Thermal Zone
  ,                                       !- Load Distribution Scheme
  {48ae36dc-9836-453f-b8cf-5b54330b3441}, !- Zone Equipment 1
  1,                                      !- Zone Equipment Cooling Sequence 1
  1,                                      !- Zone Equipment Heating or No-Load Sequence 1
  {1e5e630e-f0ed-4c9f-92a4-db5610f5c82d}, !- Zone Equipment Sequential Cooling Fraction Schedule Name 1
  {bd959213-3698-4b17-a348-1576147e587f}, !- Zone Equipment Sequential Heating Fraction Schedule Name 1
  {f38e10ed-2f26-43c9-9a3a-70118760dbdb}, !- Zone Equipment 2
  2,                                      !- Zone Equipment Cooling Sequence 2
  2,                                      !- Zone Equipment Heating or No-Load Sequence 2
  {12c97eef-8bc0-450e-8901-f951b90ae98e}, !- Zone Equipment Sequential Cooling Fraction Schedule Name 2
  {21d4ffd1-1756-457a-be59-5de3554f5e8c}; !- Zone Equipment Sequential Heating Fraction Schedule Name 2

OS:AdditionalProperties,
  {55054455-52c7-4ed8-bf67-1bfc30d18d0e}, !- Handle
  {2891f49b-dcb1-44e1-8a2f-e1c2d72b8c20}, !- Object Name
  ObjectType,                             !- Feature Name 1
  String,                                 !- Feature Data Type 1
  conditioned space;                      !- Feature Value 1

OS:Space,
  {7ed4e751-81b1-4fa0-aa24-f8513deff0e3}, !- Handle
  conditioned space 1,                    !- Name
  ,                                       !- Space Type Name
  ,                                       !- Default Construction Set Name
  ,                                       !- Default Schedule Set Name
  ,                                       !- Direction of Relative North {deg}
  ,                                       !- X Origin {m}
  ,                                       !- Y Origin {m}
  ,                                       !- Z Origin {m}
  ,                                       !- Building Story Name
  {2891f49b-dcb1-44e1-8a2f-e1c2d72b8c20}, !- Thermal Zone Name
  ,                                       !- Part of Total Floor Area
  ,                                       !- Design Specification Outdoor Air Object Name
  ,                                       !- Building Unit Name
  692.06373070848;                        !- Volume {m3}

OS:Schedule:Ruleset,
  {e083e944-677f-4552-9a4b-c0fe30d99de8}, !- Handle
  heating setpoint,                       !- Name
  {8c0eaeb6-ebbc-4259-a8b9-dd807c3d3e4e}, !- Schedule Type Limits Name
  {1785e7ef-b6df-407d-bf23-a3c732f4c2a3}; !- Default Day Schedule Name

OS:Schedule:Day,
  {1785e7ef-b6df-407d-bf23-a3c732f4c2a3}, !- Handle
  heating setpoint default day,           !- Name
  {8c0eaeb6-ebbc-4259-a8b9-dd807c3d3e4e}, !- Schedule Type Limits Name
  ,                                       !- Interpolate to Timestep
  24,                                     !- Hour 1
  0,                                      !- Minute 1
  0;                                      !- Value Until Time 1

OS:Schedule:Rule,
  {2e295d3b-466b-48cd-83b3-4a8de83b6374}, !- Handle
  heating setpoint allday rule,           !- Name
  {e083e944-677f-4552-9a4b-c0fe30d99de8}, !- Schedule Ruleset Name
  0,                                      !- Rule Order
  {92746ceb-d9d6-4db1-9687-9600ad0db5b0}, !- Day Schedule Name
  Yes,                                    !- Apply Sunday
  Yes,                                    !- Apply Monday
  Yes,                                    !- Apply Tuesday
  Yes,                                    !- Apply Wednesday
  Yes,                                    !- Apply Thursday
  Yes,                                    !- Apply Friday
  Yes,                                    !- Apply Saturday
  DateRange,                              !- Date Specification Type
  1,                                      !- Start Month
  1,                                      !- Start Day
  12,                                     !- End Month
  31;                                     !- End Day

OS:Schedule:Day,
  {92746ceb-d9d6-4db1-9687-9600ad0db5b0}, !- Handle
  heating setpoint day,                   !- Name
  {8c0eaeb6-ebbc-4259-a8b9-dd807c3d3e4e}, !- Schedule Type Limits Name
  ,                                       !- Interpolate to Timestep
  24,                                     !- Hour 1
  0,                                      !- Minute 1
  20;                                     !- Value Until Time 1

OS:Schedule:Ruleset,
  {425844cc-deca-4612-9eac-e217020d10b3}, !- Handle
  cooling setpoint,                       !- Name
  {8c0eaeb6-ebbc-4259-a8b9-dd807c3d3e4e}, !- Schedule Type Limits Name
  {dae46b3d-37fd-40e6-99d7-c3f8ea3ebeb0}; !- Default Day Schedule Name

OS:Schedule:Day,
  {dae46b3d-37fd-40e6-99d7-c3f8ea3ebeb0}, !- Handle
  cooling setpoint default day,           !- Name
  {8c0eaeb6-ebbc-4259-a8b9-dd807c3d3e4e}, !- Schedule Type Limits Name
  ,                                       !- Interpolate to Timestep
  24,                                     !- Hour 1
  0,                                      !- Minute 1
  0;                                      !- Value Until Time 1

OS:Schedule:Rule,
  {d1b20cd8-7139-4b9e-8850-f80430415736}, !- Handle
  cooling setpoint allday rule,           !- Name
  {425844cc-deca-4612-9eac-e217020d10b3}, !- Schedule Ruleset Name
  0,                                      !- Rule Order
  {599cd1b8-81b0-4694-92f8-8a4f3646fb0d}, !- Day Schedule Name
  Yes,                                    !- Apply Sunday
  Yes,                                    !- Apply Monday
  Yes,                                    !- Apply Tuesday
  Yes,                                    !- Apply Wednesday
  Yes,                                    !- Apply Thursday
  Yes,                                    !- Apply Friday
  Yes,                                    !- Apply Saturday
  DateRange,                              !- Date Specification Type
  1,                                      !- Start Month
  1,                                      !- Start Day
  12,                                     !- End Month
  31;                                     !- End Day

OS:Schedule:Day,
  {599cd1b8-81b0-4694-92f8-8a4f3646fb0d}, !- Handle
  cooling setpoint day,                   !- Name
  {8c0eaeb6-ebbc-4259-a8b9-dd807c3d3e4e}, !- Schedule Type Limits Name
  ,                                       !- Interpolate to Timestep
  24,                                     !- Hour 1
  0,                                      !- Minute 1
  25.5555555555556;                       !- Value Until Time 1

OS:ThermostatSetpoint:DualSetpoint,
  {2d4ac1ef-e001-49a9-9192-285203554918}, !- Handle
  conditioned space temperature setpoint, !- Name
  {e083e944-677f-4552-9a4b-c0fe30d99de8}, !- Heating Setpoint Temperature Schedule Name
  {425844cc-deca-4612-9eac-e217020d10b3}, !- Cooling Setpoint Temperature Schedule Name
  0;                                      !- Temperature Difference Between Cutout And Setpoint {deltaC}

OS:ScheduleTypeLimits,
  {8c0eaeb6-ebbc-4259-a8b9-dd807c3d3e4e}, !- Handle
  Temperature,                            !- Name
  ,                                       !- Lower Limit Value
  ,                                       !- Upper Limit Value
  Continuous,                             !- Numeric Type
  Temperature;                            !- Unit Type

OS:Surface,
  {ea141afe-274c-4929-ab03-c69d8e6702bc}, !- Handle
  Roof1,                                  !- Name
  RoofCeiling,                            !- Surface Type
  {e7c1d283-0d32-46b9-8cd9-b8718bbca16f}, !- Construction Name
  {1ba59b2c-a3fc-480f-9f0e-132e5a2b9884}, !- Space Name
  Outdoors,                               !- Outside Boundary Condition
  ,                                       !- Outside Boundary Condition Object
  SunExposed,                             !- Sun Exposure
  WindExposed,                            !- Wind Exposure
  ,                                       !- View Factor to Ground
  ,                                       !- Number of Vertices
  -26.9347048849634, 58.0557891618865, 2.4384, !- X,Y,Z Vertex 1 {m}
  -26.9347048849634, 46.7895631136661, 8.0715130241102, !- X,Y,Z Vertex 2 {m}
  -14.3386812381136, 46.7895631136661, 8.0715130241102, !- X,Y,Z Vertex 3 {m}
  -14.3386812381136, 58.0557891618865, 2.4384; !- X,Y,Z Vertex 4 {m}

OS:AdditionalProperties,
  {a056bd95-5998-475e-a75b-97dd32236c32}, !- Handle
  {ea141afe-274c-4929-ab03-c69d8e6702bc}, !- Object Name
  Length,                                 !- Feature Name 1
  Double,                                 !- Feature Data Type 1
  41.325536899113608,                     !- Feature Value 1
  Width,                                  !- Feature Name 2
  Double,                                 !- Feature Data Type 2
  41.325536899113601,                     !- Feature Value 2
  Azimuth,                                !- Feature Name 3
  Integer,                                !- Feature Data Type 3
  0,                                      !- Feature Value 3
  Tilt,                                   !- Feature Name 4
  Double,                                 !- Feature Data Type 4
  0.5,                                    !- Feature Value 4
  SurfaceType,                            !- Feature Name 5
  String,                                 !- Feature Data Type 5
  Roof;                                   !- Feature Value 5

OS:ThermalZone,
  {9cd5f8d2-2f63-4b01-a050-99719f0d0391}, !- Handle
  attic - vented,                         !- Name
  1,                                      !- Multiplier
  ,                                       !- Ceiling Height {m}
  356.390921899745,                       !- Volume {m3}
  ,                                       !- Floor Area {m2}
  ,                                       !- Zone Inside Convection Algorithm
  ,                                       !- Zone Outside Convection Algorithm
  ,                                       !- Zone Conditioning Equipment List Name
  {8d4ab50d-5b9b-4f5a-a8e4-bdd6c22b558d}, !- Zone Air Inlet Port List
  {e27ab67a-7bef-4be4-8053-85daea2c79b5}, !- Zone Air Exhaust Port List
  {930f0698-96a6-4329-bc1e-d59abb2e6598}, !- Zone Air Node Name
  {d4338279-6d9d-4ebf-80fc-4206a9e07749}, !- Zone Return Air Port List
  ,                                       !- Primary Daylighting Control Name
  ,                                       !- Fraction of Zone Controlled by Primary Daylighting Control
  ,                                       !- Secondary Daylighting Control Name
  ,                                       !- Fraction of Zone Controlled by Secondary Daylighting Control
  ,                                       !- Illuminance Map Name
  ,                                       !- Group Rendering Name
  ,                                       !- Thermostat Name
  No;                                     !- Use Ideal Air Loads

OS:Node,
  {8e239306-663c-4762-a61e-2b043135c5d5}, !- Handle
  Node 2,                                 !- Name
  {930f0698-96a6-4329-bc1e-d59abb2e6598}, !- Inlet Port
  ;                                       !- Outlet Port

OS:Connection,
  {930f0698-96a6-4329-bc1e-d59abb2e6598}, !- Handle
  {9cd5f8d2-2f63-4b01-a050-99719f0d0391}, !- Source Object
  11,                                     !- Outlet Port
  {8e239306-663c-4762-a61e-2b043135c5d5}, !- Target Object
  2;                                      !- Inlet Port

OS:PortList,
  {8d4ab50d-5b9b-4f5a-a8e4-bdd6c22b558d}, !- Handle
  {9cd5f8d2-2f63-4b01-a050-99719f0d0391}; !- HVAC Component

OS:PortList,
  {e27ab67a-7bef-4be4-8053-85daea2c79b5}, !- Handle
  {9cd5f8d2-2f63-4b01-a050-99719f0d0391}; !- HVAC Component

OS:PortList,
  {d4338279-6d9d-4ebf-80fc-4206a9e07749}, !- Handle
  {9cd5f8d2-2f63-4b01-a050-99719f0d0391}; !- HVAC Component

OS:Sizing:Zone,
  {0f4bf336-d540-4da2-9be9-a2f05e807195}, !- Handle
  {9cd5f8d2-2f63-4b01-a050-99719f0d0391}, !- Zone or ZoneList Name
  SupplyAirTemperature,                   !- Zone Cooling Design Supply Air Temperature Input Method
  14,                                     !- Zone Cooling Design Supply Air Temperature {C}
  11.11,                                  !- Zone Cooling Design Supply Air Temperature Difference {deltaC}
  SupplyAirTemperature,                   !- Zone Heating Design Supply Air Temperature Input Method
  40,                                     !- Zone Heating Design Supply Air Temperature {C}
  11.11,                                  !- Zone Heating Design Supply Air Temperature Difference {deltaC}
  0.0085,                                 !- Zone Cooling Design Supply Air Humidity Ratio {kg-H2O/kg-air}
  0.008,                                  !- Zone Heating Design Supply Air Humidity Ratio {kg-H2O/kg-air}
  ,                                       !- Zone Heating Sizing Factor
  ,                                       !- Zone Cooling Sizing Factor
  DesignDay,                              !- Cooling Design Air Flow Method
  ,                                       !- Cooling Design Air Flow Rate {m3/s}
  ,                                       !- Cooling Minimum Air Flow per Zone Floor Area {m3/s-m2}
  ,                                       !- Cooling Minimum Air Flow {m3/s}
  ,                                       !- Cooling Minimum Air Flow Fraction
  DesignDay,                              !- Heating Design Air Flow Method
  ,                                       !- Heating Design Air Flow Rate {m3/s}
  ,                                       !- Heating Maximum Air Flow per Zone Floor Area {m3/s-m2}
  ,                                       !- Heating Maximum Air Flow {m3/s}
  ,                                       !- Heating Maximum Air Flow Fraction
  No,                                     !- Account for Dedicated Outdoor Air System
  NeutralSupplyAir,                       !- Dedicated Outdoor Air System Control Strategy
  autosize,                               !- Dedicated Outdoor Air Low Setpoint Temperature for Design {C}
  autosize,                               !- Dedicated Outdoor Air High Setpoint Temperature for Design {C}
  Sensible Load Only No Latent Load,      !- Zone Load Sizing Method
  HumidityRatioDifference,                !- Zone Latent Cooling Design Supply Air Humidity Ratio Input Method
  ,                                       !- Zone Dehumidification Design Supply Air Humidity Ratio {kgWater/kgDryAir}
  0.005,                                  !- Zone Cooling Design Supply Air Humidity Ratio Difference {kgWater/kgDryAir}
  HumidityRatioDifference,                !- Zone Latent Heating Design Supply Air Humidity Ratio Input Method
  ,                                       !- Zone Humidification Design Supply Air Humidity Ratio {kgWater/kgDryAir}
  0.005,                                  !- Zone Humidification Design Supply Air Humidity Ratio Difference {kgWater/kgDryAir}
  ,                                       !- Zone Humidistat Dehumidification Set Point Schedule Name
  ,                                       !- Zone Humidistat Humidification Set Point Schedule Name
  ,                                       !- Design Zone Air Distribution Effectiveness in Cooling Mode
  ,                                       !- Design Zone Air Distribution Effectiveness in Heating Mode
  ,                                       !- Design Zone Secondary Recirculation Fraction {dimensionless}
  ,                                       !- Design Minimum Zone Ventilation Efficiency {dimensionless}
  Coincident;                             !- Sizing Option

OS:ZoneHVAC:EquipmentList,
  {dba0e7f2-c620-4b61-883f-9779c5a6feb0}, !- Handle
  Zone HVAC Equipment List 2,             !- Name
  {9cd5f8d2-2f63-4b01-a050-99719f0d0391}; !- Thermal Zone

OS:AdditionalProperties,
  {3a866024-9b17-46c5-80b1-3fbc9958e27c}, !- Handle
  {9cd5f8d2-2f63-4b01-a050-99719f0d0391}, !- Object Name
  ObjectType,                             !- Feature Name 1
  String,                                 !- Feature Data Type 1
  attic - vented;                         !- Feature Value 1

OS:Space,
  {1ba59b2c-a3fc-480f-9f0e-132e5a2b9884}, !- Handle
  attic - vented 1,                       !- Name
  ,                                       !- Space Type Name
  ,                                       !- Default Construction Set Name
  ,                                       !- Default Schedule Set Name
  ,                                       !- Direction of Relative North {deg}
  ,                                       !- X Origin {m}
  ,                                       !- Y Origin {m}
  ,                                       !- Z Origin {m}
  ,                                       !- Building Story Name
  {9cd5f8d2-2f63-4b01-a050-99719f0d0391}, !- Thermal Zone Name
  ,                                       !- Part of Total Floor Area
  ,                                       !- Design Specification Outdoor Air Object Name
  ,                                       !- Building Unit Name
  356.390921899745;                       !- Volume {m3}

OS:Material,
  {bd8b6d79-f40e-40e5-af8d-e74f4fa5ddef}, !- Handle
  asphalt or fiberglass shingles,         !- Name