
OS:Version,
  {192a54cc-a572-4649-8111-40846c2c9a3d}, !- Handle
  3.9.0;                                  !- Version Identifier

OS:SimulationControl,
  {8b375caf-8985-414d-affa-d0642dae1800}, !- Handle
  ,                                       !- Do Zone Sizing Calculation
  ,                                       !- Do System Sizing Calculation
  ,                                       !- Do Plant Sizing Calculation
  No;                                     !- Run Simulation for Sizing Periods

OS:Timestep,
  {619d53f8-e418-4943-bd96-e3a173374117}, !- Handle
  1;                                      !- Number of Timesteps per Hour

OS:ShadowCalculation,
  {97220af7-35a1-451e-9042-968cf8d2ea47}, !- Handle
  PolygonClipping,                        !- Shading Calculation Method
  ,                                       !- Shading Calculation Update Frequency Method
  20,                                     !- Shading Calculation Update Frequency
  200,                                    !- Maximum Figures in Shadow Overlap Calculations
  ,                                       !- Polygon Clipping Algorithm
  512,                                    !- Pixel Counting Resolution
  ,                                       !- Sky Diffuse Modeling Algorithm
  No,                                     !- Output External Shading Calculation Results
  No,                                     !- Disable Self-Shading Within Shading Zone Groups
  No;                                     !- Disable Self-Shading From Shading Zone Groups to Other Zones

OS:SurfaceConvectionAlgorithm:Outside,
  {9bbeed62-84e6-4a37-bfb8-00b22258be44}, !- Handle
  DOE-2;                                  !- Algorithm

OS:SurfaceConvectionAlgorithm:Inside,
  {9768a03b-5688-4f82-ade0-869fb3ce4195}, !- Handle
  TARP;                                   !- Algorithm

OS:ZoneCapacitanceMultiplier:ResearchSpecial,
  {66e399a5-0869-4c49-a37d-aed956b3506c}, !- Handle
  7,                                      !- Temperature Capacity Multiplier
  15,                                     !- Humidity Capacity Multiplier
  ;                                       !- Carbon Dioxide Capacity Multiplier

OS:ConvergenceLimits,
  {88952c84-e445-4e68-b9b8-7840b12d0ac7}, !- Handle
  0;                                      !- Minimum System Timestep {minutes}

OS:RunPeriod,
  {ca2a6b91-07c9-436d-8b81-b1784ca77658}, !- Handle
  Run Period 1,                           !- Name
  1,                                      !- Begin Month
  1,                                      !- Begin Day of Month
  12,                                     !- End Month
  31,                                     !- End Day of Month
  ,                                       !- Use Weather File Holidays and Special Days
  ,                                       !- Use Weather File Daylight Saving Period
  ,                                       !- Apply Weekend Holiday Rule
  ,                                       !- Use Weather File Rain Indicators
  ,                                       !- Use Weather File Snow Indicators
  ;                                       !- Number of Times Runperiod to be Repeated

OS:PerformancePrecisionTradeoffs,
  {e2060846-47e8-4b65-a7e3-5bf7564df287}, !- Handle
  ,                                       !- Use Coil Direct Solutions
  CarrollMRT;                             !- Zone Radiant Exchange Algorithm

OS:WeatherFile,
  {ea43ae57-4585-45fe-9001-b3fa7be09f4a}, !- Handle
  Buffalo Niagara Intl Ap,                !- City
  NY,                                     !- State Province Region
  USA,                                    !- Country
  TMY3,                                   !- Data Source
  725280,                                 !- WMO Number
  42.93,                                  !- Latitude {deg}
  -78.73,                                 !- Longitude {deg}
  -5,                                     !- Time Zone {hr}
  215,                                    !- Elevation {m}
  /Users/nmoore/github/urbanopt-example-geojson-project/example_project/weather/USA_NY_Buffalo-Greater.Buffalo.Intl.AP.725280_TMY3.epw, !- Url
  6B50E0FF,                               !- Checksum
  ,                                       !- Start Date Actual Year
  Sunday;                                 !- Start Day of Week

OS:YearDescription,
  {b4cabe8a-8c81-4069-b8ac-d7c39908054b}, !- Handle
  2007,                                   !- Calendar Year
  ,                                       !- Day of Week for Start Day
  ;                                       !- Is Leap Year

OS:Site,
  {55d556fb-3ab5-4754-b4d9-f3626b08b41a}, !- Handle
  Buffalo Niagara Intl Ap_NY,             !- Name
  42.93,                                  !- Latitude {deg}
  -78.73,                                 !- Longitude {deg}
  -5,                                     !- Time Zone {hr}
  215,                                    !- Elevation {m}
  Suburbs,                                !- Terrain
  Yes;                                    !- Keep Site Location Information

OS:RunPeriodControl:DaylightSavingTime,
  {ada288bd-d55b-43de-a84e-d696ada88b25}, !- Handle
  Mar 12,                                 !- Start Date
  Nov 5;                                  !- End Date

OS:Site:GroundTemperature:Shallow,
  {8037f5d8-0382-4562-8a93-b96e02367460}, !- Handle
  4.30207395723828,                       !- January Surface Ground Temperature {C}
  2.29327249652502,                       !- February Surface Ground Temperature {C}
  2.13240047156047,                       !- March Surface Ground Temperature {C}
  3.08567940719286,                       !- April Surface Ground Temperature {C}
  6.91256312497526,                       !- May Surface Ground Temperature {C}
  10.7216195949507,                       !- June Surface Ground Temperature {C}
  14.0238679822574,                       !- July Surface Ground Temperature {C}
  16.1157611184724,                       !- August Surface Ground Temperature {C}
  16.2934789303462,                       !- September Surface Ground Temperature {C}
  14.5920754632847,                       !- October Surface Ground Temperature {C}
  11.374036348653,                        !- November Surface Ground Temperature {C}
  7.68182621661674;                       !- December Surface Ground Temperature {C}

OS:ThermalZone,
  {bfb3e2b9-ffcd-41f3-b1b5-2ac194390559}, !- Handle
  conditioned space,                      !- Name
  1,                                      !- Multiplier
  ,                                       !- Ceiling Height {m}
  692.06373070848,                        !- Volume {m3}
  ,                                       !- Floor Area {m2}
  ,                                       !- Zone Inside Convection Algorithm
  ,                                       !- Zone Outside Convection Algorithm
  ,                                       !- Zone Conditioning Equipment List Name
  {338903bf-4e72-440d-bcc8-92d58bcda6c1}, !- Zone Air Inlet Port List
  {51ee406c-22e2-4c71-8676-c31addf50e9b}, !- Zone Air Exhaust Port List
  {df3c4e7c-6ac8-4a94-b018-bdb49e074d9e}, !- Zone Air Node Name
  {ad5c4fd9-90fd-4e7c-b48e-46251123b935}, !- Zone Return Air Port List
  ,                                       !- Primary Daylighting Control Name
  ,                                       !- Fraction of Zone Controlled by Primary Daylighting Control
  ,                                       !- Secondary Daylighting Control Name
  ,                                       !- Fraction of Zone Controlled by Secondary Daylighting Control
  ,                                       !- Illuminance Map Name
  ,                                       !- Group Rendering Name
  {74d4a607-ed0a-44b6-abf9-0d2465eb2fc4}, !- Thermostat Name
  No;                                     !- Use Ideal Air Loads

OS:Node,
  {49e411cc-5579-449e-8c31-329910ffd0bf}, !- Handle
  Node 1,                                 !- Name
  {df3c4e7c-6ac8-4a94-b018-bdb49e074d9e}, !- Inlet Port
  ;                                       !- Outlet Port

OS:Connection,
  {df3c4e7c-6ac8-4a94-b018-bdb49e074d9e}, !- Handle
  {bfb3e2b9-ffcd-41f3-b1b5-2ac194390559}, !- Source Object
  11,                                     !- Outlet Port
  {49e411cc-5579-449e-8c31-329910ffd0bf}, !- Target Object
  2;                                      !- Inlet Port

OS:PortList,
  {338903bf-4e72-440d-bcc8-92d58bcda6c1}, !- Handle
  {bfb3e2b9-ffcd-41f3-b1b5-2ac194390559}, !- HVAC Component
  {7c61065b-f9c8-4a57-93d1-8b9300392206}; !- Port 1

OS:PortList,
  {51ee406c-22e2-4c71-8676-c31addf50e9b}, !- Handle
  {bfb3e2b9-ffcd-41f3-b1b5-2ac194390559}; !- HVAC Component

OS:PortList,
  {ad5c4fd9-90fd-4e7c-b48e-46251123b935}, !- Handle
  {bfb3e2b9-ffcd-41f3-b1b5-2ac194390559}, !- HVAC Component
  {e2d7cc88-8f15-4af6-b04e-ee2d63a73a4c}; !- Port 1

OS:Sizing:Zone,
  {702900a4-4559-4189-9d11-b579dfb698a4}, !- Handle
  {bfb3e2b9-ffcd-41f3-b1b5-2ac194390559}, !- Zone or ZoneList Name
  SupplyAirTemperature,                   !- Zone Cooling Design Supply Air Temperature Input Method
  14,                                     !- Zone Cooling Design Supply Air Temperature {C}
  11.11,                                  !- Zone Cooling Design Supply Air Temperature Difference {deltaC}
  SupplyAirTemperature,                   !- Zone Heating Design Supply Air Temperature Input Method
  40,                                     !- Zone Heating Design Supply Air Temperature {C}
  11.11,                                  !- Zone Heating Design Supply Air Temperature Difference {deltaC}
  0.0085,                                 !- Zone Cooling Design Supply Air Humidity Ratio {kg-H2O/kg-air}
  0.008,                                  !- Zone Heating Design Supply Air Humidity Ratio {kg-H2O/kg-air}
  ,                                       !- Zone Heating Sizing Factor
  ,                                       !- Zone Cooling Sizing Factor
  DesignDay,                              !- Cooling Design Air Flow Method
  ,                                       !- Cooling Design Air Flow Rate {m3/s}
  ,                                       !- Cooling Minimum Air Flow per Zone Floor Area {m3/s-m2}
  ,                                       !- Cooling Minimum Air Flow {m3/s}
  ,                                       !- Cooling Minimum Air Flow Fraction
  DesignDay,                              !- Heating Design Air Flow Method
  ,                                       !- Heating Design Air Flow Rate {m3/s}
  ,                                       !- Heating Maximum Air Flow per Zone Floor Area {m3/s-m2}
  ,                                       !- Heating Maximum Air Flow {m3/s}
  ,                                       !- Heating Maximum Air Flow Fraction
  No,                                     !- Account for Dedicated Outdoor Air System
  NeutralSupplyAir,                       !- Dedicated Outdoor Air System Control Strategy
  autosize,                               !- Dedicated Outdoor Air Low Setpoint Temperature for Design {C}
  autosize,                               !- Dedicated Outdoor Air High Setpoint Temperature for Design {C}
  Sensible Load Only No Latent Load,      !- Zone Load Sizing Method
  HumidityRatioDifference,                !- Zone Latent Cooling Design Supply Air Humidity Ratio Input Method
  ,                                       !- Zone Dehumidification Design Supply Air Humidity Ratio {kgWater/kgDryAir}
  0.005,                                  !- Zone Cooling Design Supply Air Humidity Ratio Difference {kgWater/kgDryAir}
  HumidityRatioDifference,                !- Zone Latent Heating Design Supply Air Humidity Ratio Input Method
  ,                                       !- Zone Humidification Design Supply Air Humidity Ratio {kgWater/kgDryAir}
  0.005,                                  !- Zone Humidification Design Supply Air Humidity Ratio Difference {kgWater/kgDryAir}
  ,                                       !- Zone Humidistat Dehumidification Set Point Schedule Name
  ,                                       !- Zone Humidistat Humidification Set Point Schedule Name
  ,                                       !- Design Zone Air Distribution Effectiveness in Cooling Mode
  ,                                       !- Design Zone Air Distribution Effectiveness in Heating Mode
  ,                                       !- Design Zone Secondary Recirculation Fraction {dimensionless}
  ,                                       !- Design Minimum Zone Ventilation Efficiency {dimensionless}
  Coincident;                             !- Sizing Option

OS:ZoneHVAC:EquipmentList,
  {c9f2528d-bbfa-40ae-9d78-a865cf2170e4}, !- Handle
  Zone HVAC Equipment List 1,             !- Name
  {bfb3e2b9-ffcd-41f3-b1b5-2ac194390559}, !- Thermal Zone
  ,                                       !- Load Distribution Scheme
  {1adbbd5e-56c2-4ffb-a01c-032b4e5a1f17}, !- Zone Equipment 1
  1,                                      !- Zone Equipment Cooling Sequence 1
  1,                                      !- Zone Equipment Heating or No-Load Sequence 1
  {cffed9c0-ce1a-440d-b911-0962ce6d54f4}, !- Zone Equipment Sequential Cooling Fraction Schedule Name 1
  {d798f7df-b6ea-4fb0-ac2d-484643440540}, !- Zone Equipment Sequential Heating Fraction Schedule Name 1
  {e098ac73-f828-412e-b738-77a49c726c9b}, !- Zone Equipment 2
  2,                                      !- Zone Equipment Cooling Sequence 2
  2,                                      !- Zone Equipment Heating or No-Load Sequence 2
  {c8b9f22e-78b4-4678-b4c1-d4a11dcc18e7}, !- Zone Equipment Sequential Cooling Fraction Schedule Name 2
  {8537c33f-42bb-4e68-9eeb-4da46b90a4a3}; !- Zone Equipment Sequential Heating Fraction Schedule Name 2

OS:AdditionalProperties,
  {b65391d4-4460-4057-a75b-d262a6fa2c09}, !- Handle
  {bfb3e2b9-ffcd-41f3-b1b5-2ac194390559}, !- Object Name
  ObjectType,                             !- Feature Name 1
  String,                                 !- Feature Data Type 1
  conditioned space;                      !- Feature Value 1

OS:Space,
  {a7c9ba96-0c41-45ba-b79c-66f5eb72b497}, !- Handle
  conditioned space 1,                    !- Name
  ,                                       !- Space Type Name
  ,                                       !- Default Construction Set Name
  ,                                       !- Default Schedule Set Name
  ,                                       !- Direction of Relative North {deg}
  ,                                       !- X Origin {m}
  ,                                       !- Y Origin {m}
  ,                                       !- Z Origin {m}
  ,                                       !- Building Story Name
  {bfb3e2b9-ffcd-41f3-b1b5-2ac194390559}, !- Thermal Zone Name
  ,                                       !- Part of Total Floor Area
  ,                                       !- Design Specification Outdoor Air Object Name
  ,                                       !- Building Unit Name
  692.06373070848;                        !- Volume {m3}

OS:Schedule:Ruleset,
  {d133dddf-5071-4338-a7d8-0175b707a48b}, !- Handle
  heating setpoint,                       !- Name
  {68130d71-3fb0-4dcb-b48e-d70f56eac42f}, !- Schedule Type Limits Name
  {48c60989-a989-4847-a95f-1976529aca8d}; !- Default Day Schedule Name

OS:Schedule:Day,
  {48c60989-a989-4847-a95f-1976529aca8d}, !- Handle
  heating setpoint default day,           !- Name
  {68130d71-3fb0-4dcb-b48e-d70f56eac42f}, !- Schedule Type Limits Name
  ,                                       !- Interpolate to Timestep
  24,                                     !- Hour 1
  0,                                      !- Minute 1
  0;                                      !- Value Until Time 1

OS:Schedule:Rule,
  {8d36341c-e483-41b4-b64c-ab0e5d6825f4}, !- Handle
  heating setpoint allday rule,           !- Name
  {d133dddf-5071-4338-a7d8-0175b707a48b}, !- Schedule Ruleset Name
  0,                                      !- Rule Order
  {86b93d0b-3d88-489f-b9b2-b03054807e6b}, !- Day Schedule Name
  Yes,                                    !- Apply Sunday
  Yes,                                    !- Apply Monday
  Yes,                                    !- Apply Tuesday
  Yes,                                    !- Apply Wednesday
  Yes,                                    !- Apply Thursday
  Yes,                                    !- Apply Friday
  Yes,                                    !- Apply Saturday
  DateRange,                              !- Date Specification Type
  1,                                      !- Start Month
  1,                                      !- Start Day
  12,                                     !- End Month
  31;                                     !- End Day

OS:Schedule:Day,
  {86b93d0b-3d88-489f-b9b2-b03054807e6b}, !- Handle
  heating setpoint day,                   !- Name
  {68130d71-3fb0-4dcb-b48e-d70f56eac42f}, !- Schedule Type Limits Name
  ,                                       !- Interpolate to Timestep
  24,                                     !- Hour 1
  0,                                      !- Minute 1
  20;                                     !- Value Until Time 1

OS:Schedule:Ruleset,
  {eff8e64b-3f34-48f3-9b2b-bbfb377e7b22}, !- Handle
  cooling setpoint,                       !- Name
  {68130d71-3fb0-4dcb-b48e-d70f56eac42f}, !- Schedule Type Limits Name
  {6b226bac-d9cd-4e55-938a-e8dc569f90b1}; !- Default Day Schedule Name

OS:Schedule:Day,
  {6b226bac-d9cd-4e55-938a-e8dc569f90b1}, !- Handle
  cooling setpoint default day,           !- Name
  {68130d71-3fb0-4dcb-b48e-d70f56eac42f}, !- Schedule Type Limits Name
  ,                                       !- Interpolate to Timestep
  24,                                     !- Hour 1
  0,                                      !- Minute 1
  0;                                      !- Value Until Time 1

OS:Schedule:Rule,
  {ba93ecd1-b889-4ff5-b6aa-d728bef5b22a}, !- Handle
  cooling setpoint allday rule,           !- Name
  {eff8e64b-3f34-48f3-9b2b-bbfb377e7b22}, !- Schedule Ruleset Name
  0,                                      !- Rule Order
  {592bd4aa-5c45-49c2-8f3e-f90ef521b461}, !- Day Schedule Name
  Yes,                                    !- Apply Sunday
  Yes,                                    !- Apply Monday
  Yes,                                    !- Apply Tuesday
  Yes,                                    !- Apply Wednesday
  Yes,                                    !- Apply Thursday
  Yes,                                    !- Apply Friday
  Yes,                                    !- Apply Saturday
  DateRange,                              !- Date Specification Type
  1,                                      !- Start Month
  1,                                      !- Start Day
  12,                                     !- End Month
  31;                                     !- End Day

OS:Schedule:Day,
  {592bd4aa-5c45-49c2-8f3e-f90ef521b461}, !- Handle
  cooling setpoint day,                   !- Name
  {68130d71-3fb0-4dcb-b48e-d70f56eac42f}, !- Schedule Type Limits Name
  ,                                       !- Interpolate to Timestep
  24,                                     !- Hour 1
  0,                                      !- Minute 1
  25.5555555555556;                       !- Value Until Time 1

OS:ThermostatSetpoint:DualSetpoint,
  {74d4a607-ed0a-44b6-abf9-0d2465eb2fc4}, !- Handle
  conditioned space temperature setpoint, !- Name
  {d133dddf-5071-4338-a7d8-0175b707a48b}, !- Heating Setpoint Temperature Schedule Name
  {eff8e64b-3f34-48f3-9b2b-bbfb377e7b22}, !- Cooling Setpoint Temperature Schedule Name
  0;                                      !- Temperature Difference Between Cutout And Setpoint {deltaC}

OS:ScheduleTypeLimits,
  {68130d71-3fb0-4dcb-b48e-d70f56eac42f}, !- Handle
  Temperature,                            !- Name
  ,                                       !- Lower Limit Value
  ,                                       !- Upper Limit Value
  Continuous,                             !- Numeric Type
  Temperature;                            !- Unit Type

OS:Surface,
  {10d8e33d-120f-4ff7-b792-f43fa92425b9}, !- Handle
  Roof1,                                  !- Name
  RoofCeiling,                            !- Surface Type
  {d7a17a04-634e-465c-9e15-dcd98ecdf83c}, !- Construction Name
  {c6015436-b014-4534-997c-630dfce0965a}, !- Space Name
  Outdoors,                               !- Outside Boundary Condition
  ,                                       !- Outside Boundary Condition Object
  SunExposed,                             !- Sun Exposure
  WindExposed,                            !- Wind Exposure
  ,                                       !- View Factor to Ground
  ,                                       !- Number of Vertices
  -26.9347048849634, 58.0557891618865, 2.4384, !- X,Y,Z Vertex 1 {m}
  -26.9347048849634, 46.7895631136661, 8.0715130241102, !- X,Y,Z Vertex 2 {m}
  -14.3386812381136, 46.7895631136661, 8.0715130241102, !- X,Y,Z Vertex 3 {m}
  -14.3386812381136, 58.0557891618865, 2.4384; !- X,Y,Z Vertex 4 {m}

OS:AdditionalProperties,
  {b05ff98f-1e2a-4438-80c4-d62d5a0059f5}, !- Handle
  {10d8e33d-120f-4ff7-b792-f43fa92425b9}, !- Object Name
  Length,                                 !- Feature Name 1
  Double,                                 !- Feature Data Type 1
  41.325536899113608,                     !- Feature Value 1
  Width,                                  !- Feature Name 2
  Double,                                 !- Feature Data Type 2
  41.325536899113601,                     !- Feature Value 2
  Azimuth,                                !- Feature Name 3
  Integer,                                !- Feature Data Type 3
  0,                                      !- Feature Value 3
  Tilt,                                   !- Feature Name 4
  Double,                                 !- Feature Data Type 4
  0.5,                                    !- Feature Value 4
  SurfaceType,                            !- Feature Name 5
  String,                                 !- Feature Data Type 5
  Roof;                                   !- Feature Value 5

OS:ThermalZone,
  {b6a8b06a-439a-4539-8bfa-b90097fbb083}, !- Handle
  attic - vented,                         !- Name
  1,                                      !- Multiplier
  ,                                       !- Ceiling Height {m}
  356.389957095237,                       !- Volume {m3}
  ,                                       !- Floor Area {m2}
  ,                                       !- Zone Inside Convection Algorithm
  ,                                       !- Zone Outside Convection Algorithm
  ,                                       !- Zone Conditioning Equipment List Name
  {6c459de0-4e3d-47e9-ab16-38caf251c3d9}, !- Zone Air Inlet Port List
  {f7b0653f-21d5-4b1c-8f39-ad567bf0b61f}, !- Zone Air Exhaust Port List
  {939f8334-ea58-446f-abe3-652e0ae4bcb3}, !- Zone Air Node Name
  {a733f955-fb4f-408a-8acc-3be96df6164f}, !- Zone Return Air Port List
  ,                                       !- Primary Daylighting Control Name
  ,                                       !- Fraction of Zone Controlled by Primary Daylighting Control
  ,                                       !- Secondary Daylighting Control Name
  ,                                       !- Fraction of Zone Controlled by Secondary Daylighting Control
  ,                                       !- Illuminance Map Name
  ,                                       !- Group Rendering Name
  ,                                       !- Thermostat Name
  No;                                     !- Use Ideal Air Loads

OS:Node,
  {c54e5ae4-9d91-4fe3-a2a1-73122f6623b9}, !- Handle
  Node 2,                                 !- Name
  {939f8334-ea58-446f-abe3-652e0ae4bcb3}, !- Inlet Port
  ;                                       !- Outlet Port

OS:Connection,
  {939f8334-ea58-446f-abe3-652e0ae4bcb3}, !- Handle
  {b6a8b06a-439a-4539-8bfa-b90097fbb083}, !- Source Object
  11,                                     !- Outlet Port
  {c54e5ae4-9d91-4fe3-a2a1-73122f6623b9}, !- Target Object
  2;                                      !- Inlet Port

OS:PortList,
  {6c459de0-4e3d-47e9-ab16-38caf251c3d9}, !- Handle
  {b6a8b06a-439a-4539-8bfa-b90097fbb083}; !- HVAC Component

OS:PortList,
  {f7b0653f-21d5-4b1c-8f39-ad567bf0b61f}, !- Handle
  {b6a8b06a-439a-4539-8bfa-b90097fbb083}; !- HVAC Component

OS:PortList,
  {a733f955-fb4f-408a-8acc-3be96df6164f}, !- Handle
  {b6a8b06a-439a-4539-8bfa-b90097fbb083}; !- HVAC Component

OS:Sizing:Zone,
  {6bd2d308-93e1-4c80-9277-4e69a48d720a}, !- Handle
  {b6a8b06a-439a-4539-8bfa-b90097fbb083}, !- Zone or ZoneList Name
  SupplyAirTemperature,                   !- Zone Cooling Design Supply Air Temperature Input Method
  14,                                     !- Zone Cooling Design Supply Air Temperature {C}
  11.11,                                  !- Zone Cooling Design Supply Air Temperature Difference {deltaC}
  SupplyAirTemperature,                   !- Zone Heating Design Supply Air Temperature Input Method
  40,                                     !- Zone Heating Design Supply Air Temperature {C}
  11.11,                                  !- Zone Heating Design Supply Air Temperature Difference {deltaC}
  0.0085,                                 !- Zone Cooling Design Supply Air Humidity Ratio {kg-H2O/kg-air}
  0.008,                                  !- Zone Heating Design Supply Air Humidity Ratio {kg-H2O/kg-air}
  ,                                       !- Zone Heating Sizing Factor
  ,                                       !- Zone Cooling Sizing Factor
  DesignDay,                              !- Cooling Design Air Flow Method
  ,                                       !- Cooling Design Air Flow Rate {m3/s}
  ,                                       !- Cooling Minimum Air Flow per Zone Floor Area {m3/s-m2}
  ,                                       !- Cooling Minimum Air Flow {m3/s}
  ,                                       !- Cooling Minimum Air Flow Fraction
  DesignDay,                              !- Heating Design Air Flow Method
  ,                                       !- Heating Design Air Flow Rate {m3/s}
  ,                                       !- Heating Maximum Air Flow per Zone Floor Area {m3/s-m2}
  ,                                       !- Heating Maximum Air Flow {m3/s}
  ,                                       !- Heating Maximum Air Flow Fraction
  No,                                     !- Account for Dedicated Outdoor Air System
  NeutralSupplyAir,                       !- Dedicated Outdoor Air System Control Strategy
  autosize,                               !- Dedicated Outdoor Air Low Setpoint Temperature for Design {C}
  autosize,                               !- Dedicated Outdoor Air High Setpoint Temperature for Design {C}
  Sensible Load Only No Latent Load,      !- Zone Load Sizing Method
  HumidityRatioDifference,                !- Zone Latent Cooling Design Supply Air Humidity Ratio Input Method
  ,                                       !- Zone Dehumidification Design Supply Air Humidity Ratio {kgWater/kgDryAir}
  0.005,                                  !- Zone Cooling Design Supply Air Humidity Ratio Difference {kgWater/kgDryAir}
  HumidityRatioDifference,                !- Zone Latent Heating Design Supply Air Humidity Ratio Input Method
  ,                                       !- Zone Humidification Design Supply Air Humidity Ratio {kgWater/kgDryAir}
  0.005,                                  !- Zone Humidification Design Supply Air Humidity Ratio Difference {kgWater/kgDryAir}
  ,                                       !- Zone Humidistat Dehumidification Set Point Schedule Name
  ,                                       !- Zone Humidistat Humidification Set Point Schedule Name
  ,                                       !- Design Zone Air Distribution Effectiveness in Cooling Mode
  ,                                       !- Design Zone Air Distribution Effectiveness in Heating Mode
  ,                                       !- Design Zone Secondary Recirculation Fraction {dimensionless}
  ,                                       !- Design Minimum Zone Ventilation Efficiency {dimensionless}
  Coincident;                             !- Sizing Option

OS:ZoneHVAC:EquipmentList,
  {ce895151-bce7-450f-b028-08602dd2e5f1}, !- Handle
  Zone HVAC Equipment List 2,             !- Name
  {b6a8b06a-439a-4539-8bfa-b90097fbb083}; !- Thermal Zone

OS:AdditionalProperties,
  {64e0889c-aebc-4790-901b-fa381f0d0417}, !- Handle
  {b6a8b06a-439a-4539-8bfa-b90097fbb083}, !- Object Name
  ObjectType,                             !- Feature Name 1
  String,                                 !- Feature Data Type 1
  attic - vented;                         !- Feature Value 1

OS:Space,
  {c6015436-b014-4534-997c-630dfce0965a}, !- Handle
  attic - vented 1,                       !- Name
  ,                                       !- Space Type Name
  ,                                       !- Default Construction Set Name
  ,                                       !- Default Schedule Set Name
  ,                                       !- Direction of Relative North {deg}
  ,                                       !- X Origin {m}
  ,                                       !- Y Origin {m}
  ,                                       !- Z Origin {m}
  ,                                       !- Building Story Name
  {b6a8b06a-439a-4539-8bfa-b90097fbb083}, !- Thermal Zone Name
  ,                                       !- Part of Total Floor Area
  ,                                       !- Design Specification Outdoor Air Object Name
  ,                                       !- Building Unit Name
  356.389957095237;                       !- Volume {m3}

OS:Material,
  {44496037-6d3a-4768-8b6e-8f255103c2f7}, !- Handle
  asphalt or fiberglass shingles,         !- Name