
OS:Version,
  {eeb43d64-de0f-4918-91b2-d391be42a6ef}, !- Handle
  3.10.0;                                 !- Version Identifier

OS:SimulationControl,
  {68e45ba3-5944-40b0-849e-45acf039ed50}, !- Handle
  ,                                       !- Do Zone Sizing Calculation
  ,                                       !- Do System Sizing Calculation
  ,                                       !- Do Plant Sizing Calculation
  No;                                     !- Run Simulation for Sizing Periods

OS:Timestep,
  {5a18eb0f-bd87-4fee-bc09-181efaa57808}, !- Handle
  1;                                      !- Number of Timesteps per Hour

OS:ShadowCalculation,
  {e0336cb0-faa3-4777-b94b-a5ef5902b3de}, !- Handle
  PolygonClipping,                        !- Shading Calculation Method
  ,                                       !- Shading Calculation Update Frequency Method
  20,                                     !- Shading Calculation Update Frequency
  200,                                    !- Maximum Figures in Shadow Overlap Calculations
  ,                                       !- Polygon Clipping Algorithm
  512,                                    !- Pixel Counting Resolution
  ,                                       !- Sky Diffuse Modeling Algorithm
  No,                                     !- Output External Shading Calculation Results
  No,                                     !- Disable Self-Shading Within Shading Zone Groups
  No;                                     !- Disable Self-Shading From Shading Zone Groups to Other Zones

OS:SurfaceConvectionAlgorithm:Outside,
  {5b7d04f9-7983-4c70-9a2d-f43d7455d738}, !- Handle
  DOE-2;                                  !- Algorithm

OS:SurfaceConvectionAlgorithm:Inside,
  {481edf0e-a939-4159-b834-72397e111d27}, !- Handle
  TARP;                                   !- Algorithm

OS:ZoneCapacitanceMultiplier:ResearchSpecial,
  {664ff840-7ebb-413f-9b81-de557991bd99}, !- Handle
  7,                                      !- Temperature Capacity Multiplier
  15,                                     !- Humidity Capacity Multiplier
  ;                                       !- Carbon Dioxide Capacity Multiplier

OS:ConvergenceLimits,
  {966001df-8956-423e-b0b2-9f0d0f1433b0}, !- Handle
  0;                                      !- Minimum System Timestep {minutes}

OS:RunPeriod,
  {a6317cd2-3c4e-4ddc-a2dd-d76494e6daf5}, !- Handle
  Run Period 1,                           !- Name
  1,                                      !- Begin Month
  1,                                      !- Begin Day of Month
  12,                                     !- End Month
  31,                                     !- End Day of Month
  ,                                       !- Use Weather File Holidays and Special Days
  ,                                       !- Use Weather File Daylight Saving Period
  ,                                       !- Apply Weekend Holiday Rule
  ,                                       !- Use Weather File Rain Indicators
  ,                                       !- Use Weather File Snow Indicators
  ;                                       !- Number of Times Runperiod to be Repeated

OS:PerformancePrecisionTradeoffs,
  {9fc76f88-a8ec-4401-b115-e58636276d56}, !- Handle
  ,                                       !- Use Coil Direct Solutions
  CarrollMRT;                             !- Zone Radiant Exchange Algorithm

OS:WeatherFile,
  {aa62fddb-b4a0-4cbb-8b7e-7610816fe880}, !- Handle
  Buffalo Niagara Intl Ap,                !- City
  NY,                                     !- State Province Region
  USA,                                    !- Country
  TMY3,                                   !- Data Source
  725280,                                 !- WMO Number
  42.93,                                  !- Latitude {deg}
  -78.73,                                 !- Longitude {deg}
  -5,                                     !- Time Zone {hr}
  215,                                    !- Elevation {m}
  /Users/nmoore/github/urbanopt-example-geojson-project/example_project/weather/USA_NY_Buffalo-Greater.Buffalo.Intl.AP.725280_TMY3.epw, !- Url
  6B50E0FF,                               !- Checksum
  ,                                       !- Start Date Actual Year
  Sunday;                                 !- Start Day of Week

OS:YearDescription,
  {09e4812e-0c5e-4af0-b2f9-3f29999a2e9f}, !- Handle
  2007,                                   !- Calendar Year
  ,                                       !- Day of Week for Start Day
  ;                                       !- Is Leap Year

OS:Site,
  {3eb85fc0-d2b7-408a-b074-00dd2debfb8a}, !- Handle
  Buffalo Niagara Intl Ap_NY,             !- Name
  42.93,                                  !- Latitude {deg}
  -78.73,                                 !- Longitude {deg}
  -5,                                     !- Time Zone {hr}
  215,                                    !- Elevation {m}
  Suburbs,                                !- Terrain
  Yes;                                    !- Keep Site Location Information

OS:RunPeriodControl:DaylightSavingTime,
  {347119ed-da8a-4a6f-85be-41a3d3ced38c}, !- Handle
  Mar 12,                                 !- Start Date
  Nov 5;                                  !- End Date

OS:Site:GroundTemperature:Shallow,
  {2a54329e-8326-4b7d-b143-9dcc777db2d5}, !- Handle
  4.30207395723828,                       !- January Surface Ground Temperature {C}
  2.29327249652502,                       !- February Surface Ground Temperature {C}
  2.13240047156047,                       !- March Surface Ground Temperature {C}
  3.08567940719286,                       !- April Surface Ground Temperature {C}
  6.91256312497526,                       !- May Surface Ground Temperature {C}
  10.7216195949507,                       !- June Surface Ground Temperature {C}
  14.0238679822574,                       !- July Surface Ground Temperature {C}
  16.1157611184724,                       !- August Surface Ground Temperature {C}
  16.2934789303462,                       !- September Surface Ground Temperature {C}
  14.5920754632847,                       !- October Surface Ground Temperature {C}
  11.374036348653,                        !- November Surface Ground Temperature {C}
  7.68182621661674;                       !- December Surface Ground Temperature {C}

OS:ThermalZone,
  {748800ac-a54c-44fd-9828-1ae533680d75}, !- Handle
  conditioned space,                      !- Name
  1,                                      !- Multiplier
  ,                                       !- Ceiling Height {m}
  692.06373070848,                        !- Volume {m3}
  ,                                       !- Floor Area {m2}
  ,                                       !- Zone Inside Convection Algorithm
  ,                                       !- Zone Outside Convection Algorithm
  ,                                       !- Zone Conditioning Equipment List Name
  {740422ef-f208-494f-ab2c-e81455759a39}, !- Zone Air Inlet Port List
  {7479126b-d868-442c-b4ff-f04056d09503}, !- Zone Air Exhaust Port List
  {5b9bf6ae-d623-40ba-b416-0a41cccdcc83}, !- Zone Air Node Name
  {1ef1bbbd-9b53-407c-92f7-fa32f8289638}, !- Zone Return Air Port List
  ,                                       !- Primary Daylighting Control Name
  ,                                       !- Fraction of Zone Controlled by Primary Daylighting Control
  ,                                       !- Secondary Daylighting Control Name
  ,                                       !- Fraction of Zone Controlled by Secondary Daylighting Control
  ,                                       !- Illuminance Map Name
  ,                                       !- Group Rendering Name
  {88cd10f7-cd55-42d6-b004-b92a75d8f878}, !- Thermostat Name
  No;                                     !- Use Ideal Air Loads

OS:Node,
  {81933701-0c47-410e-b59f-c2f90645dfec}, !- Handle
  Node 1,                                 !- Name
  {5b9bf6ae-d623-40ba-b416-0a41cccdcc83}, !- Inlet Port
  ;                                       !- Outlet Port

OS:Connection,
  {5b9bf6ae-d623-40ba-b416-0a41cccdcc83}, !- Handle
  {748800ac-a54c-44fd-9828-1ae533680d75}, !- Source Object
  11,                                     !- Outlet Port
  {81933701-0c47-410e-b59f-c2f90645dfec}, !- Target Object
  2;                                      !- Inlet Port

OS:PortList,
  {740422ef-f208-494f-ab2c-e81455759a39}, !- Handle
  {748800ac-a54c-44fd-9828-1ae533680d75}, !- HVAC Component
  {e4ebbbb5-d32b-4252-b871-c2335605fde6}; !- Port 1

OS:PortList,
  {7479126b-d868-442c-b4ff-f04056d09503}, !- Handle
  {748800ac-a54c-44fd-9828-1ae533680d75}; !- HVAC Component

OS:PortList,
  {1ef1bbbd-9b53-407c-92f7-fa32f8289638}, !- Handle
  {748800ac-a54c-44fd-9828-1ae533680d75}, !- HVAC Component
  {3557d315-fafd-4b89-af4d-0743549db5a1}; !- Port 1

OS:Sizing:Zone,
  {614333d0-9064-4a15-b84c-e0ba3be064dd}, !- Handle
  {748800ac-a54c-44fd-9828-1ae533680d75}, !- Zone or ZoneList Name
  SupplyAirTemperature,                   !- Zone Cooling Design Supply Air Temperature Input Method
  14,                                     !- Zone Cooling Design Supply Air Temperature {C}
  11.11,                                  !- Zone Cooling Design Supply Air Temperature Difference {deltaC}
  SupplyAirTemperature,                   !- Zone Heating Design Supply Air Temperature Input Method
  40,                                     !- Zone Heating Design Supply Air Temperature {C}
  11.11,                                  !- Zone Heating Design Supply Air Temperature Difference {deltaC}
  0.0085,                                 !- Zone Cooling Design Supply Air Humidity Ratio {kg-H2O/kg-air}
  0.008,                                  !- Zone Heating Design Supply Air Humidity Ratio {kg-H2O/kg-air}
  ,                                       !- Zone Heating Sizing Factor
  ,                                       !- Zone Cooling Sizing Factor
  DesignDay,                              !- Cooling Design Air Flow Method
  ,                                       !- Cooling Design Air Flow Rate {m3/s}
  ,                                       !- Cooling Minimum Air Flow per Zone Floor Area {m3/s-m2}
  ,                                       !- Cooling Minimum Air Flow {m3/s}
  ,                                       !- Cooling Minimum Air Flow Fraction
  DesignDay,                              !- Heating Design Air Flow Method
  ,                                       !- Heating Design Air Flow Rate {m3/s}
  ,                                       !- Heating Maximum Air Flow per Zone Floor Area {m3/s-m2}
  ,                                       !- Heating Maximum Air Flow {m3/s}
  ,                                       !- Heating Maximum Air Flow Fraction
  No,                                     !- Account for Dedicated Outdoor Air System
  NeutralSupplyAir,                       !- Dedicated Outdoor Air System Control Strategy
  autosize,                               !- Dedicated Outdoor Air Low Setpoint Temperature for Design {C}
  autosize,                               !- Dedicated Outdoor Air High Setpoint Temperature for Design {C}
  Sensible Load Only No Latent Load,      !- Zone Load Sizing Method
  HumidityRatioDifference,                !- Zone Latent Cooling Design Supply Air Humidity Ratio Input Method
  ,                                       !- Zone Dehumidification Design Supply Air Humidity Ratio {kgWater/kgDryAir}
  0.005,                                  !- Zone Cooling Design Supply Air Humidity Ratio Difference {kgWater/kgDryAir}
  HumidityRatioDifference,                !- Zone Latent Heating Design Supply Air Humidity Ratio Input Method
  ,                                       !- Zone Humidification Design Supply Air Humidity Ratio {kgWater/kgDryAir}
  0.005,                                  !- Zone Humidification Design Supply Air Humidity Ratio Difference {kgWater/kgDryAir}
  ,                                       !- Zone Humidistat Dehumidification Set Point Schedule Name
  ,                                       !- Zone Humidistat Humidification Set Point Schedule Name
  ,                                       !- Design Zone Air Distribution Effectiveness in Cooling Mode
  ,                                       !- Design Zone Air Distribution Effectiveness in Heating Mode
  ,                                       !- Design Zone Secondary Recirculation Fraction {dimensionless}
  ,                                       !- Design Minimum Zone Ventilation Efficiency {dimensionless}
  Coincident;                             !- Sizing Option

OS:ZoneHVAC:EquipmentList,
  {71069dc8-be38-42ec-ac9a-4feb33f892a6}, !- Handle
  Zone HVAC Equipment List 1,             !- Name
  {748800ac-a54c-44fd-9828-1ae533680d75}, !- Thermal Zone
  ,                                       !- Load Distribution Scheme
  {eed0237a-1464-4310-9091-973719fa1847}, !- Zone Equipment 1
  1,                                      !- Zone Equipment Cooling Sequence 1
  1,                                      !- Zone Equipment Heating or No-Load Sequence 1
  {b94457cb-4e08-4dc8-a1a5-743754c427c3}, !- Zone Equipment Sequential Cooling Fraction Schedule Name 1
  {f7294cdc-f794-41b0-92ca-5d93e5a85c65}, !- Zone Equipment Sequential Heating Fraction Schedule Name 1
  {134c2804-b0f7-4a46-ace3-1b5838d0899f}, !- Zone Equipment 2
  2,                                      !- Zone Equipment Cooling Sequence 2
  2,                                      !- Zone Equipment Heating or No-Load Sequence 2
  {f713045c-3153-4493-a825-a7b98b31e479}, !- Zone Equipment Sequential Cooling Fraction Schedule Name 2
  {6865064d-4226-47bf-9307-66ae6d12d53d}; !- Zone Equipment Sequential Heating Fraction Schedule Name 2

OS:AdditionalProperties,
  {3a5ed87e-e048-44ef-bbd3-b98eaa8f399c}, !- Handle
  {748800ac-a54c-44fd-9828-1ae533680d75}, !- Object Name
  ObjectType,                             !- Feature Name 1
  String,                                 !- Feature Data Type 1
  conditioned space;                      !- Feature Value 1

OS:Space,
  {83f13e3a-e019-4e1e-abff-63b76c4cdf2c}, !- Handle
  conditioned space 1,                    !- Name
  ,                                       !- Space Type Name
  ,                                       !- Default Construction Set Name
  ,                                       !- Default Schedule Set Name
  ,                                       !- Direction of Relative North {deg}
  ,                                       !- X Origin {m}
  ,                                       !- Y Origin {m}
  ,                                       !- Z Origin {m}
  ,                                       !- Building Story Name
  {748800ac-a54c-44fd-9828-1ae533680d75}, !- Thermal Zone Name
  ,                                       !- Part of Total Floor Area
  ,                                       !- Design Specification Outdoor Air Object Name
  ,                                       !- Building Unit Name
  692.06373070848;                        !- Volume {m3}

OS:Schedule:Ruleset,
  {78664943-32d2-429a-b673-fc27a2e9eb3b}, !- Handle
  heating setpoint,                       !- Name
  {a7dd790b-bce4-494d-a63b-727d999a0702}, !- Schedule Type Limits Name
  {91167687-19db-4b3a-9ae8-2ff944a21d8a}; !- Default Day Schedule Name

OS:Schedule:Day,
  {91167687-19db-4b3a-9ae8-2ff944a21d8a}, !- Handle
  heating setpoint default day,           !- Name
  {a7dd790b-bce4-494d-a63b-727d999a0702}, !- Schedule Type Limits Name
  ,                                       !- Interpolate to Timestep
  24,                                     !- Hour 1
  0,                                      !- Minute 1
  0;                                      !- Value Until Time 1

OS:Schedule:Rule,
  {fa57cf3d-a19c-4c86-acc8-f57811cdc7ec}, !- Handle
  heating setpoint allday rule,           !- Name
  {78664943-32d2-429a-b673-fc27a2e9eb3b}, !- Schedule Ruleset Name
  0,                                      !- Rule Order
  {c506f0fd-fc12-4b18-b951-b5208c206326}, !- Day Schedule Name
  Yes,                                    !- Apply Sunday
  Yes,                                    !- Apply Monday
  Yes,                                    !- Apply Tuesday
  Yes,                                    !- Apply Wednesday
  Yes,                                    !- Apply Thursday
  Yes,                                    !- Apply Friday
  Yes,                                    !- Apply Saturday
  DateRange,                              !- Date Specification Type
  1,                                      !- Start Month
  1,                                      !- Start Day
  12,                                     !- End Month
  31;                                     !- End Day

OS:Schedule:Day,
  {c506f0fd-fc12-4b18-b951-b5208c206326}, !- Handle
  heating setpoint day,                   !- Name
  {a7dd790b-bce4-494d-a63b-727d999a0702}, !- Schedule Type Limits Name
  ,                                       !- Interpolate to Timestep
  24,                                     !- Hour 1
  0,                                      !- Minute 1
  20;                                     !- Value Until Time 1

OS:Schedule:Ruleset,
  {b87637a9-4ca1-41d7-adf5-d02422c14389}, !- Handle
  cooling setpoint,                       !- Name
  {a7dd790b-bce4-494d-a63b-727d999a0702}, !- Schedule Type Limits Name
  {cd8c155b-ec9f-4fa1-bd44-f24a4fadae81}; !- Default Day Schedule Name

OS:Schedule:Day,
  {cd8c155b-ec9f-4fa1-bd44-f24a4fadae81}, !- Handle
  cooling setpoint default day,           !- Name
  {a7dd790b-bce4-494d-a63b-727d999a0702}, !- Schedule Type Limits Name
  ,                                       !- Interpolate to Timestep
  24,                                     !- Hour 1
  0,                                      !- Minute 1
  0;                                      !- Value Until Time 1

OS:Schedule:Rule,
  {eb84ed7a-28b0-480b-9556-86e0c1d6699c}, !- Handle
  cooling setpoint allday rule,           !- Name
  {b87637a9-4ca1-41d7-adf5-d02422c14389}, !- Schedule Ruleset Name
  0,                                      !- Rule Order
  {878af688-5bc6-4a33-880a-849c6dd2b959}, !- Day Schedule Name
  Yes,                                    !- Apply Sunday
  Yes,                                    !- Apply Monday
  Yes,                                    !- Apply Tuesday
  Yes,                                    !- Apply Wednesday
  Yes,                                    !- Apply Thursday
  Yes,                                    !- Apply Friday
  Yes,                                    !- Apply Saturday
  DateRange,                              !- Date Specification Type
  1,                                      !- Start Month
  1,                                      !- Start Day
  12,                                     !- End Month
  31;                                     !- End Day

OS:Schedule:Day,
  {878af688-5bc6-4a33-880a-849c6dd2b959}, !- Handle
  cooling setpoint day,                   !- Name
  {a7dd790b-bce4-494d-a63b-727d999a0702}, !- Schedule Type Limits Name
  ,                                       !- Interpolate to Timestep
  24,                                     !- Hour 1
  0,                                      !- Minute 1
  25.5555555555556;                       !- Value Until Time 1

OS:ThermostatSetpoint:DualSetpoint,
  {88cd10f7-cd55-42d6-b004-b92a75d8f878}, !- Handle
  conditioned space temperature setpoint, !- Name
  {78664943-32d2-429a-b673-fc27a2e9eb3b}, !- Heating Setpoint Temperature Schedule Name
  {b87637a9-4ca1-41d7-adf5-d02422c14389}, !- Cooling Setpoint Temperature Schedule Name
  0;                                      !- Temperature Difference Between Cutout And Setpoint {deltaC}

OS:ScheduleTypeLimits,
  {a7dd790b-bce4-494d-a63b-727d999a0702}, !- Handle
  Temperature,                            !- Name
  ,                                       !- Lower Limit Value
  ,                                       !- Upper Limit Value
  Continuous,                             !- Numeric Type
  Temperature;                            !- Unit Type

OS:Surface,
  {b0269ee7-9d9a-4df8-b03d-d609aa94340c}, !- Handle
  Roof1,                                  !- Name
  RoofCeiling,                            !- Surface Type
  {6774b430-fb31-4464-849e-6d18c6c7f0c6}, !- Construction Name
  {2d8b5b62-294a-4d3e-a09b-0506c1399571}, !- Space Name
  Outdoors,                               !- Outside Boundary Condition
  ,                                       !- Outside Boundary Condition Object
  SunExposed,                             !- Sun Exposure
  WindExposed,                            !- Wind Exposure
  ,                                       !- View Factor to Ground
  ,                                       !- Number of Vertices
  -26.9347048849634, 58.0557891618865, 2.4384, !- X,Y,Z Vertex 1 {m}
  -26.9347048849634, 46.7895631136661, 8.0715130241102, !- X,Y,Z Vertex 2 {m}
  -14.3386812381136, 46.7895631136661, 8.0715130241102, !- X,Y,Z Vertex 3 {m}
  -14.3386812381136, 58.0557891618865, 2.4384; !- X,Y,Z Vertex 4 {m}

OS:AdditionalProperties,
  {28088a3b-dec1-4c09-85b3-e38d45f0ddd5}, !- Handle
  {b0269ee7-9d9a-4df8-b03d-d609aa94340c}, !- Object Name
  Length,                                 !- Feature Name 1
  Double,                                 !- Feature Data Type 1
  41.325536899113608,                     !- Feature Value 1
  Width,                                  !- Feature Name 2
  Double,                                 !- Feature Data Type 2
  41.325536899113601,                     !- Feature Value 2
  Azimuth,                                !- Feature Name 3
  Integer,                                !- Feature Data Type 3
  0,                                      !- Feature Value 3
  Tilt,                                   !- Feature Name 4
  Double,                                 !- Feature Data Type 4
  0.5,                                    !- Feature Value 4
  SurfaceType,                            !- Feature Name 5
  String,                                 !- Feature Data Type 5
  Roof;                                   !- Feature Value 5

OS:ThermalZone,
  {2d7c6031-a6a4-42d2-99a6-f5ef08cde8b3}, !- Handle
  attic - vented,                         !- Name
  1,                                      !- Multiplier
  ,                                       !- Ceiling Height {m}
  356.390921899745,                       !- Volume {m3}
  ,                                       !- Floor Area {m2}
  ,                                       !- Zone Inside Convection Algorithm
  ,                                       !- Zone Outside Convection Algorithm
  ,                                       !- Zone Conditioning Equipment List Name
  {5c2a672c-7ca2-4979-b23a-d0bc9ce419a3}, !- Zone Air Inlet Port List
  {5620ab72-dda6-449f-a926-8c30c7b503eb}, !- Zone Air Exhaust Port List
  {f4ec5e04-0ebf-418c-aaf1-a97aa7d9f0b8}, !- Zone Air Node Name
  {3683d810-dd92-47d7-b4bc-385e6f895182}, !- Zone Return Air Port List
  ,                                       !- Primary Daylighting Control Name
  ,                                       !- Fraction of Zone Controlled by Primary Daylighting Control
  ,                                       !- Secondary Daylighting Control Name
  ,                                       !- Fraction of Zone Controlled by Secondary Daylighting Control
  ,                                       !- Illuminance Map Name
  ,                                       !- Group Rendering Name
  ,                                       !- Thermostat Name
  No;                                     !- Use Ideal Air Loads

OS:Node,
  {6c1e81b1-569a-4322-8c35-aa390c1366cb}, !- Handle
  Node 2,                                 !- Name
  {f4ec5e04-0ebf-418c-aaf1-a97aa7d9f0b8}, !- Inlet Port
  ;                                       !- Outlet Port

OS:Connection,
  {f4ec5e04-0ebf-418c-aaf1-a97aa7d9f0b8}, !- Handle
  {2d7c6031-a6a4-42d2-99a6-f5ef08cde8b3}, !- Source Object
  11,                                     !- Outlet Port
  {6c1e81b1-569a-4322-8c35-aa390c1366cb}, !- Target Object
  2;                                      !- Inlet Port

OS:PortList,
  {5c2a672c-7ca2-4979-b23a-d0bc9ce419a3}, !- Handle
  {2d7c6031-a6a4-42d2-99a6-f5ef08cde8b3}; !- HVAC Component

OS:PortList,
  {5620ab72-dda6-449f-a926-8c30c7b503eb}, !- Handle
  {2d7c6031-a6a4-42d2-99a6-f5ef08cde8b3}; !- HVAC Component

OS:PortList,
  {3683d810-dd92-47d7-b4bc-385e6f895182}, !- Handle
  {2d7c6031-a6a4-42d2-99a6-f5ef08cde8b3}; !- HVAC Component

OS:Sizing:Zone,
  {639b2924-2245-4c8e-afc6-3f3acb611fcd}, !- Handle
  {2d7c6031-a6a4-42d2-99a6-f5ef08cde8b3}, !- Zone or ZoneList Name
  SupplyAirTemperature,                   !- Zone Cooling Design Supply Air Temperature Input Method
  14,                                     !- Zone Cooling Design Supply Air Temperature {C}
  11.11,                                  !- Zone Cooling Design Supply Air Temperature Difference {deltaC}
  SupplyAirTemperature,                   !- Zone Heating Design Supply Air Temperature Input Method
  40,                                     !- Zone Heating Design Supply Air Temperature {C}
  11.11,                                  !- Zone Heating Design Supply Air Temperature Difference {deltaC}
  0.0085,                                 !- Zone Cooling Design Supply Air Humidity Ratio {kg-H2O/kg-air}
  0.008,                                  !- Zone Heating Design Supply Air Humidity Ratio {kg-H2O/kg-air}
  ,                                       !- Zone Heating Sizing Factor
  ,                                       !- Zone Cooling Sizing Factor
  DesignDay,                              !- Cooling Design Air Flow Method
  ,                                       !- Cooling Design Air Flow Rate {m3/s}
  ,                                       !- Cooling Minimum Air Flow per Zone Floor Area {m3/s-m2}
  ,                                       !- Cooling Minimum Air Flow {m3/s}
  ,                                       !- Cooling Minimum Air Flow Fraction
  DesignDay,                              !- Heating Design Air Flow Method
  ,                                       !- Heating Design Air Flow Rate {m3/s}
  ,                                       !- Heating Maximum Air Flow per Zone Floor Area {m3/s-m2}
  ,                                       !- Heating Maximum Air Flow {m3/s}
  ,                                       !- Heating Maximum Air Flow Fraction
  No,                                     !- Account for Dedicated Outdoor Air System
  NeutralSupplyAir,                       !- Dedicated Outdoor Air System Control Strategy
  autosize,                               !- Dedicated Outdoor Air Low Setpoint Temperature for Design {C}
  autosize,                               !- Dedicated Outdoor Air High Setpoint Temperature for Design {C}
  Sensible Load Only No Latent Load,      !- Zone Load Sizing Method
  HumidityRatioDifference,                !- Zone Latent Cooling Design Supply Air Humidity Ratio Input Method
  ,                                       !- Zone Dehumidification Design Supply Air Humidity Ratio {kgWater/kgDryAir}
  0.005,                                  !- Zone Cooling Design Supply Air Humidity Ratio Difference {kgWater/kgDryAir}
  HumidityRatioDifference,                !- Zone Latent Heating Design Supply Air Humidity Ratio Input Method
  ,                                       !- Zone Humidification Design Supply Air Humidity Ratio {kgWater/kgDryAir}
  0.005,                                  !- Zone Humidification Design Supply Air Humidity Ratio Difference {kgWater/kgDryAir}
  ,                                       !- Zone Humidistat Dehumidification Set Point Schedule Name
  ,                                       !- Zone Humidistat Humidification Set Point Schedule Name
  ,                                       !- Design Zone Air Distribution Effectiveness in Cooling Mode
  ,                                       !- Design Zone Air Distribution Effectiveness in Heating Mode
  ,                                       !- Design Zone Secondary Recirculation Fraction {dimensionless}
  ,                                       !- Design Minimum Zone Ventilation Efficiency {dimensionless}
  Coincident;                             !- Sizing Option

OS:ZoneHVAC:EquipmentList,
  {df9897ef-3b6d-4253-b03f-72537426458a}, !- Handle
  Zone HVAC Equipment List 2,             !- Name
  {2d7c6031-a6a4-42d2-99a6-f5ef08cde8b3}; !- Thermal Zone

OS:AdditionalProperties,
  {6abd8555-73a8-4da7-b69c-71f1cd9e9027}, !- Handle
  {2d7c6031-a6a4-42d2-99a6-f5ef08cde8b3}, !- Object Name
  ObjectType,                             !- Feature Name 1
  String,                                 !- Feature Data Type 1
  attic - vented;                         !- Feature Value 1

OS:Space,
  {2d8b5b62-294a-4d3e-a09b-0506c1399571}, !- Handle
  attic - vented 1,                       !- Name
  ,                                       !- Space Type Name
  ,                                       !- Default Construction Set Name
  ,                                       !- Default Schedule Set Name
  ,                                       !- Direction of Relative North {deg}
  ,                                       !- X Origin {m}
  ,                                       !- Y Origin {m}
  ,                                       !- Z Origin {m}
  ,                                       !- Building Story Name
  {2d7c6031-a6a4-42d2-99a6-f5ef08cde8b3}, !- Thermal Zone Name
  ,                                       !- Part of Total Floor Area
  ,                                       !- Design Specification Outdoor Air Object Name
  ,                                       !- Building Unit Name
  356.390921899745;                       !- Volume {m3}

OS:Material,
  {28aefd12-0e83-4975-9e84-373f918fa2f0}, !- Handle
  asphalt or fiberglass shingles,         !- Name