
OS:Version,
  {19037ac6-1f31-4d5a-9690-9e817d5deb28}, !- Handle
  3.10.0;                                 !- Version Identifier

OS:SimulationControl,
  {62cc213a-1bde-4d22-a5f6-826b5ad09272}, !- Handle
  ,                                       !- Do Zone Sizing Calculation
  ,                                       !- Do System Sizing Calculation
  ,                                       !- Do Plant Sizing Calculation
  No;                                     !- Run Simulation for Sizing Periods

OS:Timestep,
  {3387270c-b51c-4447-ab23-7dc38c6f9103}, !- Handle
  1;                                      !- Number of Timesteps per Hour

OS:ShadowCalculation,
  {bcd3a78e-300b-41de-9ef7-5b81d803717b}, !- Handle
  PolygonClipping,                        !- Shading Calculation Method
  ,                                       !- Shading Calculation Update Frequency Method
  20,                                     !- Shading Calculation Update Frequency
  200,                                    !- Maximum Figures in Shadow Overlap Calculations
  ,                                       !- Polygon Clipping Algorithm
  512,                                    !- Pixel Counting Resolution
  ,                                       !- Sky Diffuse Modeling Algorithm
  No,                                     !- Output External Shading Calculation Results
  No,                                     !- Disable Self-Shading Within Shading Zone Groups
  No;                                     !- Disable Self-Shading From Shading Zone Groups to Other Zones

OS:SurfaceConvectionAlgorithm:Outside,
  {86a753f4-5c83-4c40-8c55-3412e9855f19}, !- Handle
  DOE-2;                                  !- Algorithm

OS:SurfaceConvectionAlgorithm:Inside,
  {fad818e9-7ef7-4b58-b722-e09566a39557}, !- Handle
  TARP;                                   !- Algorithm

OS:ZoneCapacitanceMultiplier:ResearchSpecial,
  {31e4aff2-c2ab-441a-89b3-00a1a2dff5d9}, !- Handle
  7,                                      !- Temperature Capacity Multiplier
  15,                                     !- Humidity Capacity Multiplier
  ;                                       !- Carbon Dioxide Capacity Multiplier

OS:ConvergenceLimits,
  {a69d78a0-e4c6-41ab-9d66-e6a22a3f0e88}, !- Handle
  0;                                      !- Minimum System Timestep {minutes}

OS:RunPeriod,
  {b5576085-b2bb-4e82-bf5a-c8b29d016f91}, !- Handle
  Run Period 1,                           !- Name
  1,                                      !- Begin Month
  1,                                      !- Begin Day of Month
  12,                                     !- End Month
  31,                                     !- End Day of Month
  ,                                       !- Use Weather File Holidays and Special Days
  ,                                       !- Use Weather File Daylight Saving Period
  ,                                       !- Apply Weekend Holiday Rule
  ,                                       !- Use Weather File Rain Indicators
  ,                                       !- Use Weather File Snow Indicators
  ;                                       !- Number of Times Runperiod to be Repeated

OS:PerformancePrecisionTradeoffs,
  {b526198a-6b5e-42b7-a543-7e21d70078c3}, !- Handle
  ,                                       !- Use Coil Direct Solutions
  CarrollMRT;                             !- Zone Radiant Exchange Algorithm

OS:WeatherFile,
  {e2deba6f-911d-4ab0-9d6e-5797d476fac5}, !- Handle
  Buffalo Niagara Intl Ap,                !- City
  NY,                                     !- State Province Region
  USA,                                    !- Country
  TMY3,                                   !- Data Source
  725280,                                 !- WMO Number
  42.93,                                  !- Latitude {deg}
  -78.73,                                 !- Longitude {deg}
  -5,                                     !- Time Zone {hr}
  215,                                    !- Elevation {m}
  /Users/nmoore/github/urbanopt-example-geojson-project/example_project/weather/USA_NY_Buffalo-Greater.Buffalo.Intl.AP.725280_TMY3.epw, !- Url
  6B50E0FF,                               !- Checksum
  ,                                       !- Start Date Actual Year
  Sunday;                                 !- Start Day of Week

OS:YearDescription,
  {5ac47654-37c3-4dcf-8653-08533bf121c8}, !- Handle
  2007,                                   !- Calendar Year
  ,                                       !- Day of Week for Start Day
  ;                                       !- Is Leap Year

OS:Site,
  {974c3d85-8e05-4dad-a6d3-494ba36fab17}, !- Handle
  Buffalo Niagara Intl Ap_NY,             !- Name
  42.93,                                  !- Latitude {deg}
  -78.73,                                 !- Longitude {deg}
  -5,                                     !- Time Zone {hr}
  215,                                    !- Elevation {m}
  Suburbs,                                !- Terrain
  Yes;                                    !- Keep Site Location Information

OS:RunPeriodControl:DaylightSavingTime,
  {057ef9a0-d693-488f-a6c0-c00fea7255f0}, !- Handle
  Mar 12,                                 !- Start Date
  Nov 5;                                  !- End Date

OS:Site:GroundTemperature:Shallow,
  {91055c8d-efb2-403d-bb76-5e89255bb156}, !- Handle
  4.30207395723828,                       !- January Surface Ground Temperature {C}
  2.29327249652502,                       !- February Surface Ground Temperature {C}
  2.13240047156047,                       !- March Surface Ground Temperature {C}
  3.08567940719286,                       !- April Surface Ground Temperature {C}
  6.91256312497526,                       !- May Surface Ground Temperature {C}
  10.7216195949507,                       !- June Surface Ground Temperature {C}
  14.0238679822574,                       !- July Surface Ground Temperature {C}
  16.1157611184724,                       !- August Surface Ground Temperature {C}
  16.2934789303462,                       !- September Surface Ground Temperature {C}
  14.5920754632847,                       !- October Surface Ground Temperature {C}
  11.374036348653,                        !- November Surface Ground Temperature {C}
  7.68182621661674;                       !- December Surface Ground Temperature {C}

OS:ThermalZone,
  {d6808350-0a17-4a9c-8e7e-984edbb6df92}, !- Handle
  conditioned space,                      !- Name
  1,                                      !- Multiplier
  ,                                       !- Ceiling Height {m}
  346.03186535424,                        !- Volume {m3}
  ,                                       !- Floor Area {m2}
  ,                                       !- Zone Inside Convection Algorithm
  ,                                       !- Zone Outside Convection Algorithm
  ,                                       !- Zone Conditioning Equipment List Name
  {7c48e799-c5ac-45cb-80ae-146110aa24b7}, !- Zone Air Inlet Port List
  {a07bcfc8-28c6-46ca-8f00-f41f8d18e6c9}, !- Zone Air Exhaust Port List
  {14c8cfa4-f32f-4762-b921-be73a0adc5d3}, !- Zone Air Node Name
  {f2230237-e4a9-485e-ab67-b1784647543b}, !- Zone Return Air Port List
  ,                                       !- Primary Daylighting Control Name
  ,                                       !- Fraction of Zone Controlled by Primary Daylighting Control
  ,                                       !- Secondary Daylighting Control Name
  ,                                       !- Fraction of Zone Controlled by Secondary Daylighting Control
  ,                                       !- Illuminance Map Name
  ,                                       !- Group Rendering Name
  {08fc9d8f-02bf-4c7d-b71c-d2009c7dc5f3}, !- Thermostat Name
  No;                                     !- Use Ideal Air Loads

OS:Node,
  {2122ee00-382c-4990-9787-3c66653a3c4e}, !- Handle
  Node 1,                                 !- Name
  {14c8cfa4-f32f-4762-b921-be73a0adc5d3}, !- Inlet Port
  ;                                       !- Outlet Port

OS:Connection,
  {14c8cfa4-f32f-4762-b921-be73a0adc5d3}, !- Handle
  {d6808350-0a17-4a9c-8e7e-984edbb6df92}, !- Source Object
  11,                                     !- Outlet Port
  {2122ee00-382c-4990-9787-3c66653a3c4e}, !- Target Object
  2;                                      !- Inlet Port

OS:PortList,
  {7c48e799-c5ac-45cb-80ae-146110aa24b7}, !- Handle
  {d6808350-0a17-4a9c-8e7e-984edbb6df92}, !- HVAC Component
  {2f91c5fa-2c2f-4dcf-bdfb-0cd29dc27abd}; !- Port 1

OS:PortList,
  {a07bcfc8-28c6-46ca-8f00-f41f8d18e6c9}, !- Handle
  {d6808350-0a17-4a9c-8e7e-984edbb6df92}; !- HVAC Component

OS:PortList,
  {f2230237-e4a9-485e-ab67-b1784647543b}, !- Handle
  {d6808350-0a17-4a9c-8e7e-984edbb6df92}, !- HVAC Component
  {4da7fb28-7533-4126-8d45-e19e74898055}; !- Port 1

OS:Sizing:Zone,
  {69df207c-ce77-40f1-9a87-a0bde582a935}, !- Handle
  {d6808350-0a17-4a9c-8e7e-984edbb6df92}, !- Zone or ZoneList Name
  SupplyAirTemperature,                   !- Zone Cooling Design Supply Air Temperature Input Method
  14,                                     !- Zone Cooling Design Supply Air Temperature {C}
  11.11,                                  !- Zone Cooling Design Supply Air Temperature Difference {deltaC}
  SupplyAirTemperature,                   !- Zone Heating Design Supply Air Temperature Input Method
  40,                                     !- Zone Heating Design Supply Air Temperature {C}
  11.11,                                  !- Zone Heating Design Supply Air Temperature Difference {deltaC}
  0.0085,                                 !- Zone Cooling Design Supply Air Humidity Ratio {kg-H2O/kg-air}
  0.008,                                  !- Zone Heating Design Supply Air Humidity Ratio {kg-H2O/kg-air}
  ,                                       !- Zone Heating Sizing Factor
  ,                                       !- Zone Cooling Sizing Factor
  DesignDay,                              !- Cooling Design Air Flow Method
  ,                                       !- Cooling Design Air Flow Rate {m3/s}
  ,                                       !- Cooling Minimum Air Flow per Zone Floor Area {m3/s-m2}
  ,                                       !- Cooling Minimum Air Flow {m3/s}
  ,                                       !- Cooling Minimum Air Flow Fraction
  DesignDay,                              !- Heating Design Air Flow Method
  ,                                       !- Heating Design Air Flow Rate {m3/s}
  ,                                       !- Heating Maximum Air Flow per Zone Floor Area {m3/s-m2}
  ,                                       !- Heating Maximum Air Flow {m3/s}
  ,                                       !- Heating Maximum Air Flow Fraction
  No,                                     !- Account for Dedicated Outdoor Air System
  NeutralSupplyAir,                       !- Dedicated Outdoor Air System Control Strategy
  autosize,                               !- Dedicated Outdoor Air Low Setpoint Temperature for Design {C}
  autosize,                               !- Dedicated Outdoor Air High Setpoint Temperature for Design {C}
  Sensible Load Only No Latent Load,      !- Zone Load Sizing Method
  HumidityRatioDifference,                !- Zone Latent Cooling Design Supply Air Humidity Ratio Input Method
  ,                                       !- Zone Dehumidification Design Supply Air Humidity Ratio {kgWater/kgDryAir}
  0.005,                                  !- Zone Cooling Design Supply Air Humidity Ratio Difference {kgWater/kgDryAir}
  HumidityRatioDifference,                !- Zone Latent Heating Design Supply Air Humidity Ratio Input Method
  ,                                       !- Zone Humidification Design Supply Air Humidity Ratio {kgWater/kgDryAir}
  0.005,                                  !- Zone Humidification Design Supply Air Humidity Ratio Difference {kgWater/kgDryAir}
  ,                                       !- Zone Humidistat Dehumidification Set Point Schedule Name
  ,                                       !- Zone Humidistat Humidification Set Point Schedule Name
  ,                                       !- Design Zone Air Distribution Effectiveness in Cooling Mode
  ,                                       !- Design Zone Air Distribution Effectiveness in Heating Mode
  ,                                       !- Design Zone Secondary Recirculation Fraction {dimensionless}
  ,                                       !- Design Minimum Zone Ventilation Efficiency {dimensionless}
  Coincident;                             !- Sizing Option

OS:ZoneHVAC:EquipmentList,
  {6d9eb0e9-0bff-49b1-bbd9-0a7d70ad520e}, !- Handle
  Zone HVAC Equipment List 1,             !- Name
  {d6808350-0a17-4a9c-8e7e-984edbb6df92}, !- Thermal Zone
  ,                                       !- Load Distribution Scheme
  {8174e35e-a5e8-489c-80db-456a86c7b7ac}, !- Zone Equipment 1
  1,                                      !- Zone Equipment Cooling Sequence 1
  1,                                      !- Zone Equipment Heating or No-Load Sequence 1
  {ba252181-f3ec-4f35-af73-343e3585c732}, !- Zone Equipment Sequential Cooling Fraction Schedule Name 1
  {50987fce-009d-411c-9dda-47697d4a31df}; !- Zone Equipment Sequential Heating Fraction Schedule Name 1

OS:AdditionalProperties,
  {6cd23fe6-a5fe-4de8-b577-4daa23db00e6}, !- Handle
  {d6808350-0a17-4a9c-8e7e-984edbb6df92}, !- Object Name
  ObjectType,                             !- Feature Name 1
  String,                                 !- Feature Data Type 1
  conditioned space;                      !- Feature Value 1

OS:Space,
  {7b238b8b-678f-42ec-8d0a-fef04f14a207}, !- Handle
  conditioned space 1,                    !- Name
  ,                                       !- Space Type Name
  ,                                       !- Default Construction Set Name
  ,                                       !- Default Schedule Set Name
  ,                                       !- Direction of Relative North {deg}
  ,                                       !- X Origin {m}
  ,                                       !- Y Origin {m}
  ,                                       !- Z Origin {m}
  ,                                       !- Building Story Name
  {d6808350-0a17-4a9c-8e7e-984edbb6df92}, !- Thermal Zone Name
  ,                                       !- Part of Total Floor Area
  ,                                       !- Design Specification Outdoor Air Object Name
  ,                                       !- Building Unit Name
  346.03186535424;                        !- Volume {m3}

OS:Schedule:Ruleset,
  {c0d07c65-f3f8-4b26-b3c6-c32028ea8436}, !- Handle
  heating setpoint,                       !- Name
  {5e34d42e-8e21-4139-95e5-c35c7469e588}, !- Schedule Type Limits Name
  {c239bf3b-7a14-4d38-8cf3-6c93e04e9db6}; !- Default Day Schedule Name

OS:Schedule:Day,
  {c239bf3b-7a14-4d38-8cf3-6c93e04e9db6}, !- Handle
  heating setpoint default day,           !- Name
  {5e34d42e-8e21-4139-95e5-c35c7469e588}, !- Schedule Type Limits Name
  ,                                       !- Interpolate to Timestep
  24,                                     !- Hour 1
  0,                                      !- Minute 1
  0;                                      !- Value Until Time 1

OS:Schedule:Rule,
  {666e0281-869a-4861-809b-c5ef5e40a6a1}, !- Handle
  heating setpoint allday rule,           !- Name
  {c0d07c65-f3f8-4b26-b3c6-c32028ea8436}, !- Schedule Ruleset Name
  0,                                      !- Rule Order
  {f8ae1121-601e-4720-a6c6-132d1a2a10f5}, !- Day Schedule Name
  Yes,                                    !- Apply Sunday
  Yes,                                    !- Apply Monday
  Yes,                                    !- Apply Tuesday
  Yes,                                    !- Apply Wednesday
  Yes,                                    !- Apply Thursday
  Yes,                                    !- Apply Friday
  Yes,                                    !- Apply Saturday
  DateRange,                              !- Date Specification Type
  1,                                      !- Start Month
  1,                                      !- Start Day
  12,                                     !- End Month
  31;                                     !- End Day

OS:Schedule:Day,
  {f8ae1121-601e-4720-a6c6-132d1a2a10f5}, !- Handle
  heating setpoint day,                   !- Name
  {5e34d42e-8e21-4139-95e5-c35c7469e588}, !- Schedule Type Limits Name
  ,                                       !- Interpolate to Timestep
  24,                                     !- Hour 1
  0,                                      !- Minute 1
  20;                                     !- Value Until Time 1

OS:Schedule:Ruleset,
  {d1254a10-1b45-436d-b576-3daead66cfb8}, !- Handle
  cooling setpoint,                       !- Name
  {5e34d42e-8e21-4139-95e5-c35c7469e588}, !- Schedule Type Limits Name
  {e9309bb0-a2bb-4e07-9a23-e582b5bcc3fe}; !- Default Day Schedule Name

OS:Schedule:Day,
  {e9309bb0-a2bb-4e07-9a23-e582b5bcc3fe}, !- Handle
  cooling setpoint default day,           !- Name
  {5e34d42e-8e21-4139-95e5-c35c7469e588}, !- Schedule Type Limits Name
  ,                                       !- Interpolate to Timestep
  24,                                     !- Hour 1
  0,                                      !- Minute 1
  0;                                      !- Value Until Time 1

OS:Schedule:Rule,
  {e3b920e6-eb07-491d-bb23-0eeb542e1a87}, !- Handle
  cooling setpoint allday rule,           !- Name
  {d1254a10-1b45-436d-b576-3daead66cfb8}, !- Schedule Ruleset Name
  0,                                      !- Rule Order
  {5aaf468c-d813-463f-b32f-c8f82bc2dadf}, !- Day Schedule Name
  Yes,                                    !- Apply Sunday
  Yes,                                    !- Apply Monday
  Yes,                                    !- Apply Tuesday
  Yes,                                    !- Apply Wednesday
  Yes,                                    !- Apply Thursday
  Yes,                                    !- Apply Friday
  Yes,                                    !- Apply Saturday
  DateRange,                              !- Date Specification Type
  1,                                      !- Start Month
  1,                                      !- Start Day
  12,                                     !- End Month
  31;                                     !- End Day

OS:Schedule:Day,
  {5aaf468c-d813-463f-b32f-c8f82bc2dadf}, !- Handle
  cooling setpoint day,                   !- Name
  {5e34d42e-8e21-4139-95e5-c35c7469e588}, !- Schedule Type Limits Name
  ,                                       !- Interpolate to Timestep
  24,                                     !- Hour 1
  0,                                      !- Minute 1
  25.5555555555556;                       !- Value Until Time 1

OS:ThermostatSetpoint:DualSetpoint,
  {08fc9d8f-02bf-4c7d-b71c-d2009c7dc5f3}, !- Handle
  conditioned space temperature setpoint, !- Name
  {c0d07c65-f3f8-4b26-b3c6-c32028ea8436}, !- Heating Setpoint Temperature Schedule Name
  {d1254a10-1b45-436d-b576-3daead66cfb8}, !- Cooling Setpoint Temperature Schedule Name
  0;                                      !- Temperature Difference Between Cutout And Setpoint {deltaC}

OS:ScheduleTypeLimits,
  {5e34d42e-8e21-4139-95e5-c35c7469e588}, !- Handle
  Temperature,                            !- Name
  ,                                       !- Lower Limit Value
  ,                                       !- Upper Limit Value
  Continuous,                             !- Numeric Type
  Temperature;                            !- Unit Type

OS:Surface,
  {03227bc3-7b2c-4c9d-91db-f3066d7a1400}, !- Handle
  Roof1,                                  !- Name
  RoofCeiling,                            !- Surface Type
  {e2fe6614-fb6c-4aa3-a0f5-11e9bde7ead8}, !- Construction Name
  {7b238b8b-678f-42ec-8d0a-fef04f14a207}, !- Space Name
  Outdoors,                               !- Outside Boundary Condition
  ,                                       !- Outside Boundary Condition Object
  SunExposed,                             !- Sun Exposure
  WindExposed,                            !- Wind Exposure
  ,                                       !- View Factor to Ground
  ,                                       !- Number of Vertices
  -5.95628646053898, 5.95628646053898, 2.4384, !- X,Y,Z Vertex 1 {m}
  -5.95628646053898, -5.95628646053898, 2.4384, !- X,Y,Z Vertex 2 {m}
  5.95628646053898, -5.95628646053898, 2.4384, !- X,Y,Z Vertex 3 {m}
  5.95628646053898, 5.95628646053898, 2.4384; !- X,Y,Z Vertex 4 {m}

OS:AdditionalProperties,
  {077eccdb-6800-4529-8297-ca97b5071536}, !- Handle
  {03227bc3-7b2c-4c9d-91db-f3066d7a1400}, !- Object Name
  Length,                                 !- Feature Name 1
  Double,                                 !- Feature Data Type 1
  39.083244491725608,                     !- Feature Value 1
  Width,                                  !- Feature Name 2
  Double,                                 !- Feature Data Type 2
  39.083244491725608,                     !- Feature Value 2
  Azimuth,                                !- Feature Name 3
  Integer,                                !- Feature Data Type 3
  0,                                      !- Feature Value 3
  Tilt,                                   !- Feature Name 4
  Double,                                 !- Feature Data Type 4
  0,                                      !- Feature Value 4
  SurfaceType,                            !- Feature Name 5
  String,                                 !- Feature Data Type 5
  Roof;                                   !- Feature Value 5

OS:Material,
  {203299e1-9d8a-4759-916b-ddc46da001c0}, !- Handle
  asphalt or fiberglass shingles,         !- Name
  Rough,                                  !- Roughness
  0.00635,                                !- Thickness {m}
  0.162714,                               !- Conductivity {W/m-K}
  1121.4,                                 !- Density {kg/m3}
  1465.45,                                !- Specific Heat {J/kg-K}
  0.9,                                    !- Thermal Absorptance
  0.85,                                   !- Solar Absorptance
  0.85;                                   !- Visible Absorptance

OS:Material,
  {e7ab84d2-a7e4-440c-9370-3b030fbe630b}, !- Handle
  roof stud and cavity,                   !- Name
  Rough,                                  !- Roughness
  0.0889,                                 !- Thickness {m}
  0.491900632004487,                      !- Conductivity {W/m-K}
  50.32683,                               !- Density {kg/m3}
  1063.80987585548,                       !- Specific Heat {J/kg-K}
  0.9,                                    !- Thermal Absorptance
  0.7,                                    !- Solar Absorptance
  0.7;                                    !- Visible Absorptance

OS:Material,
  {d919af77-1fd9-4f70-893e-c150543d1596}, !- Handle
  gypsum board,                           !- Name
  Rough,                                  !- Roughness
  0.00254,                                !- Thickness {m}
  0.1602906,                              !- Conductivity {W/m-K}
  801,                                    !- Density {kg/m3}
  837.4,                                  !- Specific Heat {J/kg-K}
  0.9,                                    !- Thermal Absorptance
  0.6,                                    !- Solar Absorptance
  0.6;                                    !- Visible Absorptance

OS:Construction,
  {e2fe6614-fb6c-4aa3-a0f5-11e9bde7ead8}, !- Handle
  Roof1 construction,                     !- Name
  ,                                       !- Surface Rendering Name
  {203299e1-9d8a-4759-916b-ddc46da001c0}, !- Layer 1
  {e7ab84d2-a7e4-440c-9370-3b030fbe630b}, !- Layer 2
  {d919af77-1fd9-4f70-893e-c150543d1596}; !- Layer 3

OS:Surface,
  {831f8d2d-8259-4681-acd6-9140a25c76c3}, !- Handle
  Wall1,                                  !- Name
  Wall,                                   !- Surface Type
  {080a7073-0870-4453-831c-857d5ede93fa}, !- Construction Name
  {7b238b8b-678f-42ec-8d0a-fef04f14a207}, !- Space Name
  Outdoors,                               !- Outside Boundary Condition
  ,                                       !- Outside Boundary Condition Object
  SunExposed,                             !- Sun Exposure
  WindExposed,                            !- Wind Exposure
  ,                                       !- View Factor to Ground
  ,                                       !- Number of Vertices
  -29.479875, 30.4089054, 0,              !- X,Y,Z Vertex 1 {m}
  -29.479875, 30.4089054, 4.8768,         !- X,Y,Z Vertex 2 {m}
  -21.055965, 30.4089054, 4.8768,         !- X,Y,Z Vertex 3 {m}
  -21.055965, 30.4089054, 0;              !- X,Y,Z Vertex 4 {m}

OS:AdditionalProperties,
  {04462ab7-8fa4-4b24-99ce-b5e2e6283e98}, !- Handle
  {831f8d2d-8259-4681-acd6-9140a25c76c3}, !- Object Name
  Length,                                 !- Feature Name 1
  Double,                                 !- Feature Data Type 1
  27.637499999999999,                     !- Feature Value 1
  Azimuth,                                !- Feature Name 2
  Integer,                                !- Feature Data Type 2
  0,                                      !- Feature Value 2
  Tilt,                                   !- Feature Name 3
  Double,                                 !- Feature Data Type 3
  90,                                     !- Feature Value 3
  SurfaceType,                            !- Feature Name 4
  String,                                 !- Feature Data Type 4
  Wall;                                   !- Feature Value 4

OS:Material,
  {8555d6e6-fca2-4f3a-9191-ff190fb3beeb}, !- Handle
  wood siding,                            !- Name
  Rough,                                  !- Roughness
  0.0254,                                 !- Thickness {m}
  0.1024175,                              !- Conductivity {W/m-K}
  544.68,                                 !- Density {kg/m3}
  1172.36,                                !- Specific Heat {J/kg-K}
  0.9,                                    !- Thermal Absorptance
  0.7,                                    !- Solar Absorptance
  0.7;                                    !- Visible Absorptance

OS:Material,
  {9ed58c5b-d3b4-4bda-9931-9b9ffd2ea671}, !- Handle
  osb sheathing 0.5 in.,                  !- Name
  Rough,                                  !- Roughness
  0.0127,                                 !- Thickness {m}
  0.1154577,                              !- Conductivity {W/m-K}
  512.64,                                 !- Density {kg/m3}
  1214.23,                                !- Specific Heat {J/kg-K}
  0.9,                                    !- Thermal Absorptance
  0.7,                                    !- Solar Absorptance
  0.7;                                    !- Visible Absorptance

OS:Material,
  {dd233410-db4f-4c1c-a5be-dbfffdd4a523}, !- Handle
  wall stud and cavity,                   !- Name
  Rough,                                  !- Roughness
  0.1397,                                 !- Thickness {m}
  0.0929021674204099,                     !- Conductivity {W/m-K}
  139.0536,                               !- Density {kg/m3}
  1170.23755760369,                       !- Specific Heat {J/kg-K}
  0.9,                                    !- Thermal Absorptance
  0.7,                                    !- Solar Absorptance
  0.7;                                    !- Visible Absorptance

OS:Material,
  {4fc94bfe-23be-4f74-845d-c437e0e7cc19}, !- Handle
  gypsum board 1,                         !- Name
  Rough,                                  !- Roughness
  0.0127,                                 !- Thickness {m}
  0.1602906,                              !- Conductivity {W/m-K}
  801,                                    !- Density {kg/m3}
  837.4,                                  !- Specific Heat {J/kg-K}
  0.9,                                    !- Thermal Absorptance
  0.6,                                    !- Solar Absorptance
  0.6;                                    !- Visible Absorptance

OS:Construction,
  {080a7073-0870-4453-831c-857d5ede93fa}, !- Handle
  Wall1 construction,                     !- Name
  ,                                       !- Surface Rendering Name
  {8555d6e6-fca2-4f3a-9191-ff190fb3beeb}, !- Layer 1
  {9ed58c5b-d3b4-4bda-9931-9b9ffd2ea671}, !- Layer 2
  {dd233410-db4f-4c1c-a5be-dbfffdd4a523}, !- Layer 3
  {4fc94bfe-23be-4f74-845d-c437e0e7cc19}; !- Layer 4

OS:Surface,
  {cbb67ac7-b13d-4ec4-8933-92a748cb04d5}, !- Handle
  Wall2,                                  !- Name
  Wall,                                   !- Surface Type
  {45f0d0a6-174e-4a1a-8147-e3649b6f92fa}, !- Construction Name
  {7b238b8b-678f-42ec-8d0a-fef04f14a207}, !- Space Name
  Outdoors,                               !- Outside Boundary Condition
  ,                                       !- Outside Boundary Condition Object
  SunExposed,                             !- Sun Exposure
  WindExposed,                            !- Wind Exposure
  ,                                       !- View Factor to Ground
  ,                                       !- Number of Vertices
  30.4089054, -26.1969504, 0,             !- X,Y,Z Vertex 1 {m}
  30.4089054, -26.1969504, 4.8768,        !- X,Y,Z Vertex 2 {m}
  30.4089054, -30.4089054, 4.8768,        !- X,Y,Z Vertex 3 {m}
  30.4089054, -30.4089054, 0;             !- X,Y,Z Vertex 4 {m}

OS:AdditionalProperties,
  {f2e0fa88-79c1-497b-a08c-b9891f451d98}, !- Handle
  {cbb67ac7-b13d-4ec4-8933-92a748cb04d5}, !- Object Name
  Length,                                 !- Feature Name 1
  Double,                                 !- Feature Data Type 1
  13.81875,                               !- Feature Value 1
  Azimuth,                                !- Feature Name 2