
OS:Version,
  {1a76d0a6-596e-43b4-9dc3-74088195d9b5}, !- Handle
  3.9.0;                                  !- Version Identifier

OS:SimulationControl,
  {83dceee4-cad0-4369-bde3-de52d5ff9647}, !- Handle
  ,                                       !- Do Zone Sizing Calculation
  ,                                       !- Do System Sizing Calculation
  ,                                       !- Do Plant Sizing Calculation
  No;                                     !- Run Simulation for Sizing Periods

OS:Timestep,
  {ee829053-12be-412a-a2d2-1957e6cdfae5}, !- Handle
  1;                                      !- Number of Timesteps per Hour

OS:ShadowCalculation,
  {ab5a64a8-f2dc-4e5a-a13d-821255b3f994}, !- Handle
  PolygonClipping,                        !- Shading Calculation Method
  ,                                       !- Shading Calculation Update Frequency Method
  20,                                     !- Shading Calculation Update Frequency
  200,                                    !- Maximum Figures in Shadow Overlap Calculations
  ,                                       !- Polygon Clipping Algorithm
  512,                                    !- Pixel Counting Resolution
  ,                                       !- Sky Diffuse Modeling Algorithm
  No,                                     !- Output External Shading Calculation Results
  No,                                     !- Disable Self-Shading Within Shading Zone Groups
  No;                                     !- Disable Self-Shading From Shading Zone Groups to Other Zones

OS:SurfaceConvectionAlgorithm:Outside,
  {75d3f9fe-6562-4848-a1f8-6474a187f5ae}, !- Handle
  DOE-2;                                  !- Algorithm

OS:SurfaceConvectionAlgorithm:Inside,
  {6652381c-6f00-49dd-b58f-03fad4877b60}, !- Handle
  TARP;                                   !- Algorithm

OS:ZoneCapacitanceMultiplier:ResearchSpecial,
  {72002b56-a6a9-45c4-9750-7d7426f10527}, !- Handle
  7,                                      !- Temperature Capacity Multiplier
  15,                                     !- Humidity Capacity Multiplier
  ;                                       !- Carbon Dioxide Capacity Multiplier

OS:ConvergenceLimits,
  {15d4f1d7-f40f-44d9-903f-08783a382b15}, !- Handle
  0;                                      !- Minimum System Timestep {minutes}

OS:RunPeriod,
  {baab17ef-44ff-4ed3-b5a2-eb961fa9ce86}, !- Handle
  Run Period 1,                           !- Name
  1,                                      !- Begin Month
  1,                                      !- Begin Day of Month
  12,                                     !- End Month
  31,                                     !- End Day of Month
  ,                                       !- Use Weather File Holidays and Special Days
  ,                                       !- Use Weather File Daylight Saving Period
  ,                                       !- Apply Weekend Holiday Rule
  ,                                       !- Use Weather File Rain Indicators
  ,                                       !- Use Weather File Snow Indicators
  ;                                       !- Number of Times Runperiod to be Repeated

OS:PerformancePrecisionTradeoffs,
  {23f6f61e-5ee3-420b-bdf6-637f8794e4e0}, !- Handle
  ,                                       !- Use Coil Direct Solutions
  CarrollMRT;                             !- Zone Radiant Exchange Algorithm

OS:WeatherFile,
  {1b108263-68b1-496b-8fe6-71fa6f6f0c1c}, !- Handle
  Buffalo Niagara Intl Ap,                !- City
  NY,                                     !- State Province Region
  USA,                                    !- Country
  TMY3,                                   !- Data Source
  725280,                                 !- WMO Number
  42.93,                                  !- Latitude {deg}
  -78.73,                                 !- Longitude {deg}
  -5,                                     !- Time Zone {hr}
  215,                                    !- Elevation {m}
  /Users/nmoore/github/urbanopt-example-geojson-project/example_project/weather/USA_NY_Buffalo-Greater.Buffalo.Intl.AP.725280_TMY3.epw, !- Url
  6B50E0FF,                               !- Checksum
  ,                                       !- Start Date Actual Year
  Sunday;                                 !- Start Day of Week

OS:YearDescription,
  {2fe75db6-8bd0-4797-9209-8dc54945face}, !- Handle
  2007,                                   !- Calendar Year
  ,                                       !- Day of Week for Start Day
  ;                                       !- Is Leap Year

OS:Site,
  {14baf9eb-764a-4e8f-bcbd-96ddf10fac71}, !- Handle
  Buffalo Niagara Intl Ap_NY,             !- Name
  42.93,                                  !- Latitude {deg}
  -78.73,                                 !- Longitude {deg}
  -5,                                     !- Time Zone {hr}
  215,                                    !- Elevation {m}
  Suburbs,                                !- Terrain
  Yes;                                    !- Keep Site Location Information

OS:RunPeriodControl:DaylightSavingTime,
  {0ae57623-c22b-499a-b0ef-f3dab270378b}, !- Handle
  Mar 12,                                 !- Start Date
  Nov 5;                                  !- End Date

OS:Site:GroundTemperature:Shallow,
  {eedbb534-ef8f-46ef-8f64-63e9c0e9e1e7}, !- Handle
  4.30207395723828,                       !- January Surface Ground Temperature {C}
  2.29327249652502,                       !- February Surface Ground Temperature {C}
  2.13240047156047,                       !- March Surface Ground Temperature {C}
  3.08567940719286,                       !- April Surface Ground Temperature {C}
  6.91256312497526,                       !- May Surface Ground Temperature {C}
  10.7216195949507,                       !- June Surface Ground Temperature {C}
  14.0238679822574,                       !- July Surface Ground Temperature {C}
  16.1157611184724,                       !- August Surface Ground Temperature {C}
  16.2934789303462,                       !- September Surface Ground Temperature {C}
  14.5920754632847,                       !- October Surface Ground Temperature {C}
  11.374036348653,                        !- November Surface Ground Temperature {C}
  7.68182621661674;                       !- December Surface Ground Temperature {C}

OS:ThermalZone,
  {448396ae-11a3-481d-aa18-df4a5b160293}, !- Handle
  conditioned space,                      !- Name
  1,                                      !- Multiplier
  ,                                       !- Ceiling Height {m}
  346.03186535424,                        !- Volume {m3}
  ,                                       !- Floor Area {m2}
  ,                                       !- Zone Inside Convection Algorithm
  ,                                       !- Zone Outside Convection Algorithm
  ,                                       !- Zone Conditioning Equipment List Name
  {35e76c8b-d68e-410d-898a-e0c6f0372737}, !- Zone Air Inlet Port List
  {da86920d-93b4-4bb9-b853-9d11bc67c1e3}, !- Zone Air Exhaust Port List
  {52f57735-4e87-40c3-834a-353a4c0403fe}, !- Zone Air Node Name
  {ad7f5d66-df25-47d0-9fd7-05eb4571b59c}, !- Zone Return Air Port List
  ,                                       !- Primary Daylighting Control Name
  ,                                       !- Fraction of Zone Controlled by Primary Daylighting Control
  ,                                       !- Secondary Daylighting Control Name
  ,                                       !- Fraction of Zone Controlled by Secondary Daylighting Control
  ,                                       !- Illuminance Map Name
  ,                                       !- Group Rendering Name
  {5bda4bb7-bf5f-46e1-bc4e-75076c6b10d6}, !- Thermostat Name
  No;                                     !- Use Ideal Air Loads

OS:Node,
  {d0d03603-b8ba-4d2d-b75f-2870f94a5c94}, !- Handle
  Node 1,                                 !- Name
  {52f57735-4e87-40c3-834a-353a4c0403fe}, !- Inlet Port
  ;                                       !- Outlet Port

OS:Connection,
  {52f57735-4e87-40c3-834a-353a4c0403fe}, !- Handle
  {448396ae-11a3-481d-aa18-df4a5b160293}, !- Source Object
  11,                                     !- Outlet Port
  {d0d03603-b8ba-4d2d-b75f-2870f94a5c94}, !- Target Object
  2;                                      !- Inlet Port

OS:PortList,
  {35e76c8b-d68e-410d-898a-e0c6f0372737}, !- Handle
  {448396ae-11a3-481d-aa18-df4a5b160293}, !- HVAC Component
  {0ff4cf24-b1e3-4716-940a-dada1b05ebc4}; !- Port 1

OS:PortList,
  {da86920d-93b4-4bb9-b853-9d11bc67c1e3}, !- Handle
  {448396ae-11a3-481d-aa18-df4a5b160293}; !- HVAC Component

OS:PortList,
  {ad7f5d66-df25-47d0-9fd7-05eb4571b59c}, !- Handle
  {448396ae-11a3-481d-aa18-df4a5b160293}, !- HVAC Component
  {17862c1f-bed7-493d-a6ad-bc50a1319771}; !- Port 1

OS:Sizing:Zone,
  {806376fa-d48f-4a90-bace-387861232d44}, !- Handle
  {448396ae-11a3-481d-aa18-df4a5b160293}, !- Zone or ZoneList Name
  SupplyAirTemperature,                   !- Zone Cooling Design Supply Air Temperature Input Method
  14,                                     !- Zone Cooling Design Supply Air Temperature {C}
  11.11,                                  !- Zone Cooling Design Supply Air Temperature Difference {deltaC}
  SupplyAirTemperature,                   !- Zone Heating Design Supply Air Temperature Input Method
  40,                                     !- Zone Heating Design Supply Air Temperature {C}
  11.11,                                  !- Zone Heating Design Supply Air Temperature Difference {deltaC}
  0.0085,                                 !- Zone Cooling Design Supply Air Humidity Ratio {kg-H2O/kg-air}
  0.008,                                  !- Zone Heating Design Supply Air Humidity Ratio {kg-H2O/kg-air}
  ,                                       !- Zone Heating Sizing Factor
  ,                                       !- Zone Cooling Sizing Factor
  DesignDay,                              !- Cooling Design Air Flow Method
  ,                                       !- Cooling Design Air Flow Rate {m3/s}
  ,                                       !- Cooling Minimum Air Flow per Zone Floor Area {m3/s-m2}
  ,                                       !- Cooling Minimum Air Flow {m3/s}
  ,                                       !- Cooling Minimum Air Flow Fraction
  DesignDay,                              !- Heating Design Air Flow Method
  ,                                       !- Heating Design Air Flow Rate {m3/s}
  ,                                       !- Heating Maximum Air Flow per Zone Floor Area {m3/s-m2}
  ,                                       !- Heating Maximum Air Flow {m3/s}
  ,                                       !- Heating Maximum Air Flow Fraction
  No,                                     !- Account for Dedicated Outdoor Air System
  NeutralSupplyAir,                       !- Dedicated Outdoor Air System Control Strategy
  autosize,                               !- Dedicated Outdoor Air Low Setpoint Temperature for Design {C}
  autosize,                               !- Dedicated Outdoor Air High Setpoint Temperature for Design {C}
  Sensible Load Only No Latent Load,      !- Zone Load Sizing Method
  HumidityRatioDifference,                !- Zone Latent Cooling Design Supply Air Humidity Ratio Input Method
  ,                                       !- Zone Dehumidification Design Supply Air Humidity Ratio {kgWater/kgDryAir}
  0.005,                                  !- Zone Cooling Design Supply Air Humidity Ratio Difference {kgWater/kgDryAir}
  HumidityRatioDifference,                !- Zone Latent Heating Design Supply Air Humidity Ratio Input Method
  ,                                       !- Zone Humidification Design Supply Air Humidity Ratio {kgWater/kgDryAir}
  0.005,                                  !- Zone Humidification Design Supply Air Humidity Ratio Difference {kgWater/kgDryAir}
  ,                                       !- Zone Humidistat Dehumidification Set Point Schedule Name
  ,                                       !- Zone Humidistat Humidification Set Point Schedule Name
  ,                                       !- Design Zone Air Distribution Effectiveness in Cooling Mode
  ,                                       !- Design Zone Air Distribution Effectiveness in Heating Mode
  ,                                       !- Design Zone Secondary Recirculation Fraction {dimensionless}
  ,                                       !- Design Minimum Zone Ventilation Efficiency {dimensionless}
  Coincident;                             !- Sizing Option

OS:ZoneHVAC:EquipmentList,
  {cd5ea149-32f6-49d0-8ee4-0f84f4ce034e}, !- Handle
  Zone HVAC Equipment List 1,             !- Name
  {448396ae-11a3-481d-aa18-df4a5b160293}, !- Thermal Zone
  ,                                       !- Load Distribution Scheme
  {c6804cf8-284c-4f47-9840-2bb6d45c1ed9}, !- Zone Equipment 1
  1,                                      !- Zone Equipment Cooling Sequence 1
  1,                                      !- Zone Equipment Heating or No-Load Sequence 1
  {23effdfa-fb78-43cc-859c-0e010cdb1a30}, !- Zone Equipment Sequential Cooling Fraction Schedule Name 1
  {f4655c94-5171-49a1-9d04-9c408d1ecae9}; !- Zone Equipment Sequential Heating Fraction Schedule Name 1

OS:AdditionalProperties,
  {e04f8b06-3eb0-4470-84f3-c3c44e3849d0}, !- Handle
  {448396ae-11a3-481d-aa18-df4a5b160293}, !- Object Name
  ObjectType,                             !- Feature Name 1
  String,                                 !- Feature Data Type 1
  conditioned space;                      !- Feature Value 1

OS:Space,
  {3d5ab547-3cfe-4555-8dad-e1bfcaf3dfa6}, !- Handle
  conditioned space 1,                    !- Name
  ,                                       !- Space Type Name
  ,                                       !- Default Construction Set Name
  ,                                       !- Default Schedule Set Name
  ,                                       !- Direction of Relative North {deg}
  ,                                       !- X Origin {m}
  ,                                       !- Y Origin {m}
  ,                                       !- Z Origin {m}
  ,                                       !- Building Story Name
  {448396ae-11a3-481d-aa18-df4a5b160293}, !- Thermal Zone Name
  ,                                       !- Part of Total Floor Area
  ,                                       !- Design Specification Outdoor Air Object Name
  ,                                       !- Building Unit Name
  346.03186535424;                        !- Volume {m3}

OS:Schedule:Ruleset,
  {2443c72e-6b3c-4daf-ac8b-4bc8d7ab16e8}, !- Handle
  heating setpoint,                       !- Name
  {e65e90e6-46cb-4f82-872c-47c9b00730d0}, !- Schedule Type Limits Name
  {4d698f39-5100-4daf-bb72-a1ed748c2858}; !- Default Day Schedule Name

OS:Schedule:Day,
  {4d698f39-5100-4daf-bb72-a1ed748c2858}, !- Handle
  heating setpoint default day,           !- Name
  {e65e90e6-46cb-4f82-872c-47c9b00730d0}, !- Schedule Type Limits Name
  ,                                       !- Interpolate to Timestep
  24,                                     !- Hour 1
  0,                                      !- Minute 1
  0;                                      !- Value Until Time 1

OS:Schedule:Rule,
  {84a3b465-7732-4559-9178-aa4fc2bdf0cb}, !- Handle
  heating setpoint allday rule,           !- Name
  {2443c72e-6b3c-4daf-ac8b-4bc8d7ab16e8}, !- Schedule Ruleset Name
  0,                                      !- Rule Order
  {de6a7eac-f943-4cf5-b119-5985655ee6dc}, !- Day Schedule Name
  Yes,                                    !- Apply Sunday
  Yes,                                    !- Apply Monday
  Yes,                                    !- Apply Tuesday
  Yes,                                    !- Apply Wednesday
  Yes,                                    !- Apply Thursday
  Yes,                                    !- Apply Friday
  Yes,                                    !- Apply Saturday
  DateRange,                              !- Date Specification Type
  1,                                      !- Start Month
  1,                                      !- Start Day
  12,                                     !- End Month
  31;                                     !- End Day

OS:Schedule:Day,
  {de6a7eac-f943-4cf5-b119-5985655ee6dc}, !- Handle
  heating setpoint day,                   !- Name
  {e65e90e6-46cb-4f82-872c-47c9b00730d0}, !- Schedule Type Limits Name
  ,                                       !- Interpolate to Timestep
  24,                                     !- Hour 1
  0,                                      !- Minute 1
  20;                                     !- Value Until Time 1

OS:Schedule:Ruleset,
  {84f23c79-5227-47a0-b57a-827e938214c4}, !- Handle
  cooling setpoint,                       !- Name
  {e65e90e6-46cb-4f82-872c-47c9b00730d0}, !- Schedule Type Limits Name
  {4bb1ab6f-e4d6-460d-b1ab-989fc19c2193}; !- Default Day Schedule Name

OS:Schedule:Day,
  {4bb1ab6f-e4d6-460d-b1ab-989fc19c2193}, !- Handle
  cooling setpoint default day,           !- Name
  {e65e90e6-46cb-4f82-872c-47c9b00730d0}, !- Schedule Type Limits Name
  ,                                       !- Interpolate to Timestep
  24,                                     !- Hour 1
  0,                                      !- Minute 1
  0;                                      !- Value Until Time 1

OS:Schedule:Rule,
  {14a00a8e-9821-47bd-99ca-f7a8f689afdf}, !- Handle
  cooling setpoint allday rule,           !- Name
  {84f23c79-5227-47a0-b57a-827e938214c4}, !- Schedule Ruleset Name
  0,                                      !- Rule Order
  {4876fe8c-f81b-4d93-b83d-660a46dbc11d}, !- Day Schedule Name
  Yes,                                    !- Apply Sunday
  Yes,                                    !- Apply Monday
  Yes,                                    !- Apply Tuesday
  Yes,                                    !- Apply Wednesday
  Yes,                                    !- Apply Thursday
  Yes,                                    !- Apply Friday
  Yes,                                    !- Apply Saturday
  DateRange,                              !- Date Specification Type
  1,                                      !- Start Month
  1,                                      !- Start Day
  12,                                     !- End Month
  31;                                     !- End Day

OS:Schedule:Day,
  {4876fe8c-f81b-4d93-b83d-660a46dbc11d}, !- Handle
  cooling setpoint day,                   !- Name
  {e65e90e6-46cb-4f82-872c-47c9b00730d0}, !- Schedule Type Limits Name
  ,                                       !- Interpolate to Timestep
  24,                                     !- Hour 1
  0,                                      !- Minute 1
  25.5555555555556;                       !- Value Until Time 1

OS:ThermostatSetpoint:DualSetpoint,
  {5bda4bb7-bf5f-46e1-bc4e-75076c6b10d6}, !- Handle
  conditioned space temperature setpoint, !- Name
  {2443c72e-6b3c-4daf-ac8b-4bc8d7ab16e8}, !- Heating Setpoint Temperature Schedule Name
  {84f23c79-5227-47a0-b57a-827e938214c4}, !- Cooling Setpoint Temperature Schedule Name
  0;                                      !- Temperature Difference Between Cutout And Setpoint {deltaC}

OS:ScheduleTypeLimits,
  {e65e90e6-46cb-4f82-872c-47c9b00730d0}, !- Handle
  Temperature,                            !- Name
  ,                                       !- Lower Limit Value
  ,                                       !- Upper Limit Value
  Continuous,                             !- Numeric Type
  Temperature;                            !- Unit Type

OS:Surface,
  {dc5a9fc9-55f1-4180-bc8a-8dec67aec2d7}, !- Handle
  Roof1,                                  !- Name
  RoofCeiling,                            !- Surface Type
  {33cec873-6c76-403b-af7e-76cf64ad621a}, !- Construction Name
  {3d5ab547-3cfe-4555-8dad-e1bfcaf3dfa6}, !- Space Name
  Outdoors,                               !- Outside Boundary Condition
  ,                                       !- Outside Boundary Condition Object
  SunExposed,                             !- Sun Exposure
  WindExposed,                            !- Wind Exposure
  ,                                       !- View Factor to Ground
  ,                                       !- Number of Vertices
  -5.95628646053898, 5.95628646053898, 2.4384, !- X,Y,Z Vertex 1 {m}
  -5.95628646053898, -5.95628646053898, 2.4384, !- X,Y,Z Vertex 2 {m}
  5.95628646053898, -5.95628646053898, 2.4384, !- X,Y,Z Vertex 3 {m}
  5.95628646053898, 5.95628646053898, 2.4384; !- X,Y,Z Vertex 4 {m}

OS:AdditionalProperties,
  {4e273f49-28ef-4e73-aed5-de7b656e0807}, !- Handle
  {dc5a9fc9-55f1-4180-bc8a-8dec67aec2d7}, !- Object Name
  Length,                                 !- Feature Name 1
  Double,                                 !- Feature Data Type 1
  39.083244491725608,                     !- Feature Value 1
  Width,                                  !- Feature Name 2
  Double,                                 !- Feature Data Type 2
  39.083244491725608,                     !- Feature Value 2
  Azimuth,                                !- Feature Name 3
  Integer,                                !- Feature Data Type 3
  0,                                      !- Feature Value 3
  Tilt,                                   !- Feature Name 4
  Double,                                 !- Feature Data Type 4
  0,                                      !- Feature Value 4
  SurfaceType,                            !- Feature Name 5
  String,                                 !- Feature Data Type 5
  Roof;                                   !- Feature Value 5

OS:Material,
  {d3a80beb-e237-497f-bf8c-0973c263e13f}, !- Handle
  asphalt or fiberglass shingles,         !- Name
  Rough,                                  !- Roughness
  0.00635,                                !- Thickness {m}
  0.162714,                               !- Conductivity {W/m-K}
  1121.4,                                 !- Density {kg/m3}
  1465.45,                                !- Specific Heat {J/kg-K}
  0.9,                                    !- Thermal Absorptance
  0.85,                                   !- Solar Absorptance
  0.85;                                   !- Visible Absorptance

OS:Material,
  {24dd6146-0321-48c0-bee8-3266e622f392}, !- Handle
  roof stud and cavity,                   !- Name
  Rough,                                  !- Roughness
  0.0889,                                 !- Thickness {m}
  0.491900632004487,                      !- Conductivity {W/m-K}
  50.32683,                               !- Density {kg/m3}
  1063.80987585548,                       !- Specific Heat {J/kg-K}
  0.9,                                    !- Thermal Absorptance
  0.7,                                    !- Solar Absorptance
  0.7;                                    !- Visible Absorptance

OS:Material,
  {66aa5a4e-7e3d-4b5e-a436-61ac662dfba5}, !- Handle
  gypsum board,                           !- Name
  Rough,                                  !- Roughness
  0.00254,                                !- Thickness {m}
  0.1602906,                              !- Conductivity {W/m-K}
  801,                                    !- Density {kg/m3}
  837.4,                                  !- Specific Heat {J/kg-K}
  0.9,                                    !- Thermal Absorptance
  0.6,                                    !- Solar Absorptance
  0.6;                                    !- Visible Absorptance

OS:Construction,
  {33cec873-6c76-403b-af7e-76cf64ad621a}, !- Handle
  Roof1 construction,                     !- Name
  ,                                       !- Surface Rendering Name
  {d3a80beb-e237-497f-bf8c-0973c263e13f}, !- Layer 1
  {24dd6146-0321-48c0-bee8-3266e622f392}, !- Layer 2
  {66aa5a4e-7e3d-4b5e-a436-61ac662dfba5}; !- Layer 3

OS:Surface,
  {71d42d52-e823-4702-a538-8fb3546471bb}, !- Handle
  Wall1,                                  !- Name
  Wall,                                   !- Surface Type
  {f078da03-8bb8-4138-9eb1-825572bd4729}, !- Construction Name
  {3d5ab547-3cfe-4555-8dad-e1bfcaf3dfa6}, !- Space Name
  Outdoors,                               !- Outside Boundary Condition
  ,                                       !- Outside Boundary Condition Object
  SunExposed,                             !- Sun Exposure
  WindExposed,                            !- Wind Exposure
  ,                                       !- View Factor to Ground
  ,                                       !- Number of Vertices
  -29.479875, 30.4089054, 0,              !- X,Y,Z Vertex 1 {m}
  -29.479875, 30.4089054, 4.8768,         !- X,Y,Z Vertex 2 {m}
  -21.055965, 30.4089054, 4.8768,         !- X,Y,Z Vertex 3 {m}
  -21.055965, 30.4089054, 0;              !- X,Y,Z Vertex 4 {m}

OS:AdditionalProperties,
  {d2067615-4e4a-4300-ab44-ad75ef9d1f78}, !- Handle
  {71d42d52-e823-4702-a538-8fb3546471bb}, !- Object Name
  Length,                                 !- Feature Name 1
  Double,                                 !- Feature Data Type 1
  27.637499999999999,                     !- Feature Value 1
  Azimuth,                                !- Feature Name 2
  Integer,                                !- Feature Data Type 2
  0,                                      !- Feature Value 2
  Tilt,                                   !- Feature Name 3
  Double,                                 !- Feature Data Type 3
  90,                                     !- Feature Value 3
  SurfaceType,                            !- Feature Name 4
  String,                                 !- Feature Data Type 4
  Wall;                                   !- Feature Value 4

OS:Material,
  {23c647f4-32c2-414c-b474-edc229f284d3}, !- Handle
  wood siding,                            !- Name
  Rough,                                  !- Roughness
  0.0254,                                 !- Thickness {m}
  0.1024175,                              !- Conductivity {W/m-K}
  544.68,                                 !- Density {kg/m3}
  1172.36,                                !- Specific Heat {J/kg-K}
  0.9,                                    !- Thermal Absorptance
  0.7,                                    !- Solar Absorptance
  0.7;                                    !- Visible Absorptance

OS:Material,
  {69ae277b-d043-4552-a6bd-b801a893b086}, !- Handle
  osb sheathing 0.5 in.,                  !- Name
  Rough,                                  !- Roughness
  0.0127,                                 !- Thickness {m}
  0.1154577,                              !- Conductivity {W/m-K}
  512.64,                                 !- Density {kg/m3}
  1214.23,                                !- Specific Heat {J/kg-K}
  0.9,                                    !- Thermal Absorptance
  0.7,                                    !- Solar Absorptance
  0.7;                                    !- Visible Absorptance

OS:Material,
  {5d483838-9cd7-4847-9a55-3fad3ae46358}, !- Handle
  wall stud and cavity,                   !- Name
  Rough,                                  !- Roughness
  0.1397,                                 !- Thickness {m}
  0.0929021674204099,                     !- Conductivity {W/m-K}
  139.0536,                               !- Density {kg/m3}
  1170.23755760369,                       !- Specific Heat {J/kg-K}
  0.9,                                    !- Thermal Absorptance
  0.7,                                    !- Solar Absorptance
  0.7;                                    !- Visible Absorptance

OS:Material,
  {c0d00d86-e5ce-40ae-9725-deb3b44839ab}, !- Handle
  gypsum board 1,                         !- Name
  Rough,                                  !- Roughness
  0.0127,                                 !- Thickness {m}
  0.1602906,                              !- Conductivity {W/m-K}
  801,                                    !- Density {kg/m3}
  837.4,                                  !- Specific Heat {J/kg-K}
  0.9,                                    !- Thermal Absorptance
  0.6,                                    !- Solar Absorptance
  0.6;                                    !- Visible Absorptance

OS:Construction,
  {f078da03-8bb8-4138-9eb1-825572bd4729}, !- Handle
  Wall1 construction,                     !- Name
  ,                                       !- Surface Rendering Name
  {23c647f4-32c2-414c-b474-edc229f284d3}, !- Layer 1
  {69ae277b-d043-4552-a6bd-b801a893b086}, !- Layer 2
  {5d483838-9cd7-4847-9a55-3fad3ae46358}, !- Layer 3
  {c0d00d86-e5ce-40ae-9725-deb3b44839ab}; !- Layer 4

OS:Surface,
  {fa8d905e-3ce0-4ee3-9469-8db5990074cd}, !- Handle
  Wall2,                                  !- Name
  Wall,                                   !- Surface Type
  {1d6bcf4b-441d-4530-9837-5b786752b3b8}, !- Construction Name
  {3d5ab547-3cfe-4555-8dad-e1bfcaf3dfa6}, !- Space Name
  Outdoors,                               !- Outside Boundary Condition
  ,                                       !- Outside Boundary Condition Object
  SunExposed,                             !- Sun Exposure
  WindExposed,                            !- Wind Exposure
  ,                                       !- View Factor to Ground
  ,                                       !- Number of Vertices
  30.4089054, -26.1969504, 0,             !- X,Y,Z Vertex 1 {m}
  30.4089054, -26.1969504, 4.8768,        !- X,Y,Z Vertex 2 {m}
  30.4089054, -30.4089054, 4.8768,        !- X,Y,Z Vertex 3 {m}
  30.4089054, -30.4089054, 0;             !- X,Y,Z Vertex 4 {m}

OS:AdditionalProperties,
  {cb60d542-e0e5-4f3c-9403-e0f78576357b}, !- Handle
  {fa8d905e-3ce0-4ee3-9469-8db5990074cd}, !- Object Name
  Length,                                 !- Feature Name 1
  Double,                                 !- Feature Data Type 1
  13.81875,                               !- Feature Value 1
  Azimuth,                                !- Feature Name 2