
OS:Version,
  {c61b4712-4fd7-4122-a123-1bab399ecd13}, !- Handle
  3.10.0;                                 !- Version Identifier

OS:SimulationControl,
  {caf52893-d8a1-416c-94ef-105c4eed5ca5}, !- Handle
  ,                                       !- Do Zone Sizing Calculation
  ,                                       !- Do System Sizing Calculation
  ,                                       !- Do Plant Sizing Calculation
  No;                                     !- Run Simulation for Sizing Periods

OS:Timestep,
  {cffb92f2-25e8-4a93-bef9-cebbbaad755e}, !- Handle
  1;                                      !- Number of Timesteps per Hour

OS:ShadowCalculation,
  {c6b25e4f-37f9-4e90-9699-dfba047519f0}, !- Handle
  PolygonClipping,                        !- Shading Calculation Method
  ,                                       !- Shading Calculation Update Frequency Method
  20,                                     !- Shading Calculation Update Frequency
  200,                                    !- Maximum Figures in Shadow Overlap Calculations
  ,                                       !- Polygon Clipping Algorithm
  512,                                    !- Pixel Counting Resolution
  ,                                       !- Sky Diffuse Modeling Algorithm
  No,                                     !- Output External Shading Calculation Results
  No,                                     !- Disable Self-Shading Within Shading Zone Groups
  No;                                     !- Disable Self-Shading From Shading Zone Groups to Other Zones

OS:SurfaceConvectionAlgorithm:Outside,
  {553556c7-2505-4a2b-8140-cdd5f06641f7}, !- Handle
  DOE-2;                                  !- Algorithm

OS:SurfaceConvectionAlgorithm:Inside,
  {792a6ada-644c-490f-a19d-cde69c6a0433}, !- Handle
  TARP;                                   !- Algorithm

OS:ZoneCapacitanceMultiplier:ResearchSpecial,
  {5cfe1947-38e1-4713-ac4c-be25de1a82ce}, !- Handle
  7,                                      !- Temperature Capacity Multiplier
  15,                                     !- Humidity Capacity Multiplier
  ;                                       !- Carbon Dioxide Capacity Multiplier

OS:ConvergenceLimits,
  {d30033a5-10d8-4011-8216-5fbaad7f4b0c}, !- Handle
  0;                                      !- Minimum System Timestep {minutes}

OS:RunPeriod,
  {42d816ba-1ecb-488b-9ff7-c024afe972b0}, !- Handle
  Run Period 1,                           !- Name
  1,                                      !- Begin Month
  1,                                      !- Begin Day of Month
  12,                                     !- End Month
  31,                                     !- End Day of Month
  ,                                       !- Use Weather File Holidays and Special Days
  ,                                       !- Use Weather File Daylight Saving Period
  ,                                       !- Apply Weekend Holiday Rule
  ,                                       !- Use Weather File Rain Indicators
  ,                                       !- Use Weather File Snow Indicators
  ;                                       !- Number of Times Runperiod to be Repeated

OS:PerformancePrecisionTradeoffs,
  {3bd0026e-3f8a-4e33-87f1-c62dd66f89c3}, !- Handle
  ,                                       !- Use Coil Direct Solutions
  CarrollMRT;                             !- Zone Radiant Exchange Algorithm

OS:WeatherFile,
  {8a7e4a45-66b7-49c1-aedd-94b24be8482a}, !- Handle
  Buffalo Niagara Intl Ap,                !- City
  NY,                                     !- State Province Region
  USA,                                    !- Country
  TMY3,                                   !- Data Source
  725280,                                 !- WMO Number
  42.93,                                  !- Latitude {deg}
  -78.73,                                 !- Longitude {deg}
  -5,                                     !- Time Zone {hr}
  215,                                    !- Elevation {m}
  /Users/nmoore/github/urbanopt-example-geojson-project/example_project/weather/USA_NY_Buffalo-Greater.Buffalo.Intl.AP.725280_TMY3.epw, !- Url
  6B50E0FF,                               !- Checksum
  ,                                       !- Start Date Actual Year
  Sunday;                                 !- Start Day of Week

OS:YearDescription,
  {993c493c-eb1a-441a-a024-3f0a827197f0}, !- Handle
  2007,                                   !- Calendar Year
  ,                                       !- Day of Week for Start Day
  ;                                       !- Is Leap Year

OS:Site,
  {f542d0c0-4a9d-46b8-8de4-7435afb831a0}, !- Handle
  Buffalo Niagara Intl Ap_NY,             !- Name
  42.93,                                  !- Latitude {deg}
  -78.73,                                 !- Longitude {deg}
  -5,                                     !- Time Zone {hr}
  215,                                    !- Elevation {m}
  Suburbs,                                !- Terrain
  Yes;                                    !- Keep Site Location Information

OS:RunPeriodControl:DaylightSavingTime,
  {44586900-5d02-4597-a0cb-84a88e9717ce}, !- Handle
  Mar 12,                                 !- Start Date
  Nov 5;                                  !- End Date

OS:Site:GroundTemperature:Shallow,
  {3cd22c34-f5a4-4327-9dd8-fdeed716284c}, !- Handle
  4.30207395723828,                       !- January Surface Ground Temperature {C}
  2.29327249652502,                       !- February Surface Ground Temperature {C}
  2.13240047156047,                       !- March Surface Ground Temperature {C}
  3.08567940719286,                       !- April Surface Ground Temperature {C}
  6.91256312497526,                       !- May Surface Ground Temperature {C}
  10.7216195949507,                       !- June Surface Ground Temperature {C}
  14.0238679822574,                       !- July Surface Ground Temperature {C}
  16.1157611184724,                       !- August Surface Ground Temperature {C}
  16.2934789303462,                       !- September Surface Ground Temperature {C}
  14.5920754632847,                       !- October Surface Ground Temperature {C}
  11.374036348653,                        !- November Surface Ground Temperature {C}
  7.68182621661674;                       !- December Surface Ground Temperature {C}

OS:ThermalZone,
  {c043571f-35b1-431d-9c03-460e296755ab}, !- Handle
  conditioned space,                      !- Name
  1,                                      !- Multiplier
  ,                                       !- Ceiling Height {m}
  692.06373070848,                        !- Volume {m3}
  ,                                       !- Floor Area {m2}
  ,                                       !- Zone Inside Convection Algorithm
  ,                                       !- Zone Outside Convection Algorithm
  ,                                       !- Zone Conditioning Equipment List Name
  {f9651f14-4bed-4dc1-beef-dd334244a54e}, !- Zone Air Inlet Port List
  {92ea7464-b26f-4dd9-a328-171ca7d418e8}, !- Zone Air Exhaust Port List
  {0d5929fc-631e-451b-9016-e0561b183f14}, !- Zone Air Node Name
  {25109fcb-395f-4ef9-85db-e6669f5c4a6f}, !- Zone Return Air Port List
  ,                                       !- Primary Daylighting Control Name
  ,                                       !- Fraction of Zone Controlled by Primary Daylighting Control
  ,                                       !- Secondary Daylighting Control Name
  ,                                       !- Fraction of Zone Controlled by Secondary Daylighting Control
  ,                                       !- Illuminance Map Name
  ,                                       !- Group Rendering Name
  {ea5631c7-0ba1-44aa-b35e-bb0b22a1ef5e}, !- Thermostat Name
  No;                                     !- Use Ideal Air Loads

OS:Node,
  {0d167c5f-833e-4a63-83d6-b7429c31a065}, !- Handle
  Node 1,                                 !- Name
  {0d5929fc-631e-451b-9016-e0561b183f14}, !- Inlet Port
  ;                                       !- Outlet Port

OS:Connection,
  {0d5929fc-631e-451b-9016-e0561b183f14}, !- Handle
  {c043571f-35b1-431d-9c03-460e296755ab}, !- Source Object
  11,                                     !- Outlet Port
  {0d167c5f-833e-4a63-83d6-b7429c31a065}, !- Target Object
  2;                                      !- Inlet Port

OS:PortList,
  {f9651f14-4bed-4dc1-beef-dd334244a54e}, !- Handle
  {c043571f-35b1-431d-9c03-460e296755ab}; !- HVAC Component

OS:PortList,
  {92ea7464-b26f-4dd9-a328-171ca7d418e8}, !- Handle
  {c043571f-35b1-431d-9c03-460e296755ab}; !- HVAC Component

OS:PortList,
  {25109fcb-395f-4ef9-85db-e6669f5c4a6f}, !- Handle
  {c043571f-35b1-431d-9c03-460e296755ab}; !- HVAC Component

OS:Sizing:Zone,
  {1a383680-35c8-440c-a54e-60b1d1449809}, !- Handle
  {c043571f-35b1-431d-9c03-460e296755ab}, !- Zone or ZoneList Name
  SupplyAirTemperature,                   !- Zone Cooling Design Supply Air Temperature Input Method
  14,                                     !- Zone Cooling Design Supply Air Temperature {C}
  11.11,                                  !- Zone Cooling Design Supply Air Temperature Difference {deltaC}
  SupplyAirTemperature,                   !- Zone Heating Design Supply Air Temperature Input Method
  40,                                     !- Zone Heating Design Supply Air Temperature {C}
  11.11,                                  !- Zone Heating Design Supply Air Temperature Difference {deltaC}
  0.0085,                                 !- Zone Cooling Design Supply Air Humidity Ratio {kg-H2O/kg-air}
  0.008,                                  !- Zone Heating Design Supply Air Humidity Ratio {kg-H2O/kg-air}
  ,                                       !- Zone Heating Sizing Factor
  ,                                       !- Zone Cooling Sizing Factor
  DesignDay,                              !- Cooling Design Air Flow Method
  ,                                       !- Cooling Design Air Flow Rate {m3/s}
  ,                                       !- Cooling Minimum Air Flow per Zone Floor Area {m3/s-m2}
  ,                                       !- Cooling Minimum Air Flow {m3/s}
  ,                                       !- Cooling Minimum Air Flow Fraction
  DesignDay,                              !- Heating Design Air Flow Method
  ,                                       !- Heating Design Air Flow Rate {m3/s}
  ,                                       !- Heating Maximum Air Flow per Zone Floor Area {m3/s-m2}
  ,                                       !- Heating Maximum Air Flow {m3/s}
  ,                                       !- Heating Maximum Air Flow Fraction
  No,                                     !- Account for Dedicated Outdoor Air System
  NeutralSupplyAir,                       !- Dedicated Outdoor Air System Control Strategy
  autosize,                               !- Dedicated Outdoor Air Low Setpoint Temperature for Design {C}
  autosize,                               !- Dedicated Outdoor Air High Setpoint Temperature for Design {C}
  Sensible Load Only No Latent Load,      !- Zone Load Sizing Method
  HumidityRatioDifference,                !- Zone Latent Cooling Design Supply Air Humidity Ratio Input Method
  ,                                       !- Zone Dehumidification Design Supply Air Humidity Ratio {kgWater/kgDryAir}
  0.005,                                  !- Zone Cooling Design Supply Air Humidity Ratio Difference {kgWater/kgDryAir}
  HumidityRatioDifference,                !- Zone Latent Heating Design Supply Air Humidity Ratio Input Method
  ,                                       !- Zone Humidification Design Supply Air Humidity Ratio {kgWater/kgDryAir}
  0.005,                                  !- Zone Humidification Design Supply Air Humidity Ratio Difference {kgWater/kgDryAir}
  ,                                       !- Zone Humidistat Dehumidification Set Point Schedule Name
  ,                                       !- Zone Humidistat Humidification Set Point Schedule Name
  ,                                       !- Design Zone Air Distribution Effectiveness in Cooling Mode
  ,                                       !- Design Zone Air Distribution Effectiveness in Heating Mode
  ,                                       !- Design Zone Secondary Recirculation Fraction {dimensionless}
  ,                                       !- Design Minimum Zone Ventilation Efficiency {dimensionless}
  Coincident;                             !- Sizing Option

OS:ZoneHVAC:EquipmentList,
  {3b063f4d-c25e-4e05-9459-9a38cbc8ef5c}, !- Handle
  Zone HVAC Equipment List 1,             !- Name
  {c043571f-35b1-431d-9c03-460e296755ab}, !- Thermal Zone
  ,                                       !- Load Distribution Scheme
  {ea145dea-643a-4592-a3a3-df25706c3eb8}, !- Zone Equipment 1
  1,                                      !- Zone Equipment Cooling Sequence 1
  1,                                      !- Zone Equipment Heating or No-Load Sequence 1
  {87aca9d2-52b1-4bda-8edf-0514aaa68fcf}, !- Zone Equipment Sequential Cooling Fraction Schedule Name 1
  {bd3cbd06-3067-4329-aff4-5faef278fe19}; !- Zone Equipment Sequential Heating Fraction Schedule Name 1

OS:AdditionalProperties,
  {554111df-00bc-40e3-8e59-aa71a3680021}, !- Handle
  {c043571f-35b1-431d-9c03-460e296755ab}, !- Object Name
  ObjectType,                             !- Feature Name 1
  String,                                 !- Feature Data Type 1
  conditioned space;                      !- Feature Value 1

OS:Space,
  {ccca8949-7dd7-4436-8324-b6d22da334cb}, !- Handle
  conditioned space 1,                    !- Name
  ,                                       !- Space Type Name
  ,                                       !- Default Construction Set Name
  ,                                       !- Default Schedule Set Name
  ,                                       !- Direction of Relative North {deg}
  ,                                       !- X Origin {m}
  ,                                       !- Y Origin {m}
  ,                                       !- Z Origin {m}
  ,                                       !- Building Story Name
  {c043571f-35b1-431d-9c03-460e296755ab}, !- Thermal Zone Name
  ,                                       !- Part of Total Floor Area
  ,                                       !- Design Specification Outdoor Air Object Name
  ,                                       !- Building Unit Name
  692.06373070848;                        !- Volume {m3}

OS:Schedule:Ruleset,
  {9330c20b-c5ca-4d22-bede-b3a47d844cce}, !- Handle
  heating setpoint,                       !- Name
  {5f62179e-8aca-4885-8b55-12a4da61df6d}, !- Schedule Type Limits Name
  {66020423-1209-4aa9-adfd-d52204993772}; !- Default Day Schedule Name

OS:Schedule:Day,
  {66020423-1209-4aa9-adfd-d52204993772}, !- Handle
  heating setpoint default day,           !- Name
  {5f62179e-8aca-4885-8b55-12a4da61df6d}, !- Schedule Type Limits Name
  ,                                       !- Interpolate to Timestep
  24,                                     !- Hour 1
  0,                                      !- Minute 1
  0;                                      !- Value Until Time 1

OS:Schedule:Rule,
  {a8d78cc0-da33-4610-bd8a-8ee67952fb37}, !- Handle
  heating setpoint allday rule,           !- Name
  {9330c20b-c5ca-4d22-bede-b3a47d844cce}, !- Schedule Ruleset Name
  0,                                      !- Rule Order
  {270c26ba-973b-4574-b18a-24cfa1185e3c}, !- Day Schedule Name
  Yes,                                    !- Apply Sunday
  Yes,                                    !- Apply Monday
  Yes,                                    !- Apply Tuesday
  Yes,                                    !- Apply Wednesday
  Yes,                                    !- Apply Thursday
  Yes,                                    !- Apply Friday
  Yes,                                    !- Apply Saturday
  DateRange,                              !- Date Specification Type
  1,                                      !- Start Month
  1,                                      !- Start Day
  12,                                     !- End Month
  31;                                     !- End Day

OS:Schedule:Day,
  {270c26ba-973b-4574-b18a-24cfa1185e3c}, !- Handle
  heating setpoint day,                   !- Name
  {5f62179e-8aca-4885-8b55-12a4da61df6d}, !- Schedule Type Limits Name
  ,                                       !- Interpolate to Timestep
  24,                                     !- Hour 1
  0,                                      !- Minute 1
  20;                                     !- Value Until Time 1

OS:Schedule:Ruleset,
  {d50f5c5c-0668-4681-a956-6b51a7231730}, !- Handle
  cooling setpoint,                       !- Name
  {5f62179e-8aca-4885-8b55-12a4da61df6d}, !- Schedule Type Limits Name
  {bf2fe9ef-a957-4312-a2bf-ab1e1474a2ef}; !- Default Day Schedule Name

OS:Schedule:Day,
  {bf2fe9ef-a957-4312-a2bf-ab1e1474a2ef}, !- Handle
  cooling setpoint default day,           !- Name
  {5f62179e-8aca-4885-8b55-12a4da61df6d}, !- Schedule Type Limits Name
  ,                                       !- Interpolate to Timestep
  24,                                     !- Hour 1
  0,                                      !- Minute 1
  0;                                      !- Value Until Time 1

OS:Schedule:Rule,
  {8711e49c-b40c-4e8f-a8e2-39dcad23a742}, !- Handle
  cooling setpoint allday rule,           !- Name
  {d50f5c5c-0668-4681-a956-6b51a7231730}, !- Schedule Ruleset Name
  0,                                      !- Rule Order
  {00872658-62aa-44cf-9644-656b9e44d9f3}, !- Day Schedule Name
  Yes,                                    !- Apply Sunday
  Yes,                                    !- Apply Monday
  Yes,                                    !- Apply Tuesday
  Yes,                                    !- Apply Wednesday
  Yes,                                    !- Apply Thursday
  Yes,                                    !- Apply Friday
  Yes,                                    !- Apply Saturday
  DateRange,                              !- Date Specification Type
  1,                                      !- Start Month
  1,                                      !- Start Day
  12,                                     !- End Month
  31;                                     !- End Day

OS:Schedule:Day,
  {00872658-62aa-44cf-9644-656b9e44d9f3}, !- Handle
  cooling setpoint day,                   !- Name
  {5f62179e-8aca-4885-8b55-12a4da61df6d}, !- Schedule Type Limits Name
  ,                                       !- Interpolate to Timestep
  24,                                     !- Hour 1
  0,                                      !- Minute 1
  25.5555555555556;                       !- Value Until Time 1

OS:ThermostatSetpoint:DualSetpoint,
  {ea5631c7-0ba1-44aa-b35e-bb0b22a1ef5e}, !- Handle
  conditioned space temperature setpoint, !- Name
  {9330c20b-c5ca-4d22-bede-b3a47d844cce}, !- Heating Setpoint Temperature Schedule Name
  {d50f5c5c-0668-4681-a956-6b51a7231730}, !- Cooling Setpoint Temperature Schedule Name
  0;                                      !- Temperature Difference Between Cutout And Setpoint {deltaC}

OS:ScheduleTypeLimits,
  {5f62179e-8aca-4885-8b55-12a4da61df6d}, !- Handle
  Temperature,                            !- Name
  ,                                       !- Lower Limit Value
  ,                                       !- Upper Limit Value
  Continuous,                             !- Numeric Type
  Temperature;                            !- Unit Type

OS:Surface,
  {e593288e-39e9-4539-819a-aff6323fac69}, !- Handle
  Roof1,                                  !- Name
  RoofCeiling,                            !- Surface Type
  {8db858ca-5a90-4ca9-959e-e3850971d3a8}, !- Construction Name
  {595ace30-97a8-40c4-bcd8-ca9fcb58227e}, !- Space Name
  Outdoors,                               !- Outside Boundary Condition
  ,                                       !- Outside Boundary Condition Object
  SunExposed,                             !- Sun Exposure
  WindExposed,                            !- Wind Exposure
  ,                                       !- View Factor to Ground
  ,                                       !- Number of Vertices
  -26.9347048849634, 58.0557891618865, 2.4384, !- X,Y,Z Vertex 1 {m}
  -26.9347048849634, 46.7895631136661, 8.0715130241102, !- X,Y,Z Vertex 2 {m}
  -14.3386812381136, 46.7895631136661, 8.0715130241102, !- X,Y,Z Vertex 3 {m}
  -14.3386812381136, 58.0557891618865, 2.4384; !- X,Y,Z Vertex 4 {m}

OS:AdditionalProperties,
  {5cae30d4-926f-4a99-a046-49ac27d36922}, !- Handle
  {e593288e-39e9-4539-819a-aff6323fac69}, !- Object Name
  Length,                                 !- Feature Name 1
  Double,                                 !- Feature Data Type 1
  41.325536899113608,                     !- Feature Value 1
  Width,                                  !- Feature Name 2
  Double,                                 !- Feature Data Type 2
  41.325536899113601,                     !- Feature Value 2
  Azimuth,                                !- Feature Name 3
  Integer,                                !- Feature Data Type 3
  0,                                      !- Feature Value 3
  Tilt,                                   !- Feature Name 4
  Double,                                 !- Feature Data Type 4
  0.5,                                    !- Feature Value 4
  SurfaceType,                            !- Feature Name 5
  String,                                 !- Feature Data Type 5
  Roof;                                   !- Feature Value 5

OS:ThermalZone,
  {1ccd6c44-f950-4ac4-bfd3-2c2cbe185ff0}, !- Handle
  attic - vented,                         !- Name
  1,                                      !- Multiplier
  ,                                       !- Ceiling Height {m}
  356.390921899745,                       !- Volume {m3}
  ,                                       !- Floor Area {m2}
  ,                                       !- Zone Inside Convection Algorithm
  ,                                       !- Zone Outside Convection Algorithm
  ,                                       !- Zone Conditioning Equipment List Name
  {fabbf9a2-a75d-4817-9ce3-1f6b71d6ce92}, !- Zone Air Inlet Port List
  {1570f377-5b17-498b-be4c-050b38f6130c}, !- Zone Air Exhaust Port List
  {137596e8-24f1-467c-9579-671fc5ff891c}, !- Zone Air Node Name
  {d4144c03-5865-49f8-b896-48808efd3564}, !- Zone Return Air Port List
  ,                                       !- Primary Daylighting Control Name
  ,                                       !- Fraction of Zone Controlled by Primary Daylighting Control
  ,                                       !- Secondary Daylighting Control Name
  ,                                       !- Fraction of Zone Controlled by Secondary Daylighting Control
  ,                                       !- Illuminance Map Name
  ,                                       !- Group Rendering Name
  ,                                       !- Thermostat Name
  No;                                     !- Use Ideal Air Loads

OS:Node,
  {1c0ba45f-dc78-4581-b5e9-00cbf688aad2}, !- Handle
  Node 2,                                 !- Name
  {137596e8-24f1-467c-9579-671fc5ff891c}, !- Inlet Port
  ;                                       !- Outlet Port

OS:Connection,
  {137596e8-24f1-467c-9579-671fc5ff891c}, !- Handle
  {1ccd6c44-f950-4ac4-bfd3-2c2cbe185ff0}, !- Source Object
  11,                                     !- Outlet Port
  {1c0ba45f-dc78-4581-b5e9-00cbf688aad2}, !- Target Object
  2;                                      !- Inlet Port

OS:PortList,
  {fabbf9a2-a75d-4817-9ce3-1f6b71d6ce92}, !- Handle
  {1ccd6c44-f950-4ac4-bfd3-2c2cbe185ff0}; !- HVAC Component

OS:PortList,
  {1570f377-5b17-498b-be4c-050b38f6130c}, !- Handle
  {1ccd6c44-f950-4ac4-bfd3-2c2cbe185ff0}; !- HVAC Component

OS:PortList,
  {d4144c03-5865-49f8-b896-48808efd3564}, !- Handle
  {1ccd6c44-f950-4ac4-bfd3-2c2cbe185ff0}; !- HVAC Component

OS:Sizing:Zone,
  {0d339309-b287-4358-96bd-f3105b48dcfb}, !- Handle
  {1ccd6c44-f950-4ac4-bfd3-2c2cbe185ff0}, !- Zone or ZoneList Name
  SupplyAirTemperature,                   !- Zone Cooling Design Supply Air Temperature Input Method
  14,                                     !- Zone Cooling Design Supply Air Temperature {C}
  11.11,                                  !- Zone Cooling Design Supply Air Temperature Difference {deltaC}
  SupplyAirTemperature,                   !- Zone Heating Design Supply Air Temperature Input Method
  40,                                     !- Zone Heating Design Supply Air Temperature {C}
  11.11,                                  !- Zone Heating Design Supply Air Temperature Difference {deltaC}
  0.0085,                                 !- Zone Cooling Design Supply Air Humidity Ratio {kg-H2O/kg-air}
  0.008,                                  !- Zone Heating Design Supply Air Humidity Ratio {kg-H2O/kg-air}
  ,                                       !- Zone Heating Sizing Factor
  ,                                       !- Zone Cooling Sizing Factor
  DesignDay,                              !- Cooling Design Air Flow Method
  ,                                       !- Cooling Design Air Flow Rate {m3/s}
  ,                                       !- Cooling Minimum Air Flow per Zone Floor Area {m3/s-m2}
  ,                                       !- Cooling Minimum Air Flow {m3/s}
  ,                                       !- Cooling Minimum Air Flow Fraction
  DesignDay,                              !- Heating Design Air Flow Method
  ,                                       !- Heating Design Air Flow Rate {m3/s}
  ,                                       !- Heating Maximum Air Flow per Zone Floor Area {m3/s-m2}
  ,                                       !- Heating Maximum Air Flow {m3/s}
  ,                                       !- Heating Maximum Air Flow Fraction
  No,                                     !- Account for Dedicated Outdoor Air System
  NeutralSupplyAir,                       !- Dedicated Outdoor Air System Control Strategy
  autosize,                               !- Dedicated Outdoor Air Low Setpoint Temperature for Design {C}
  autosize,                               !- Dedicated Outdoor Air High Setpoint Temperature for Design {C}
  Sensible Load Only No Latent Load,      !- Zone Load Sizing Method
  HumidityRatioDifference,                !- Zone Latent Cooling Design Supply Air Humidity Ratio Input Method
  ,                                       !- Zone Dehumidification Design Supply Air Humidity Ratio {kgWater/kgDryAir}
  0.005,                                  !- Zone Cooling Design Supply Air Humidity Ratio Difference {kgWater/kgDryAir}
  HumidityRatioDifference,                !- Zone Latent Heating Design Supply Air Humidity Ratio Input Method
  ,                                       !- Zone Humidification Design Supply Air Humidity Ratio {kgWater/kgDryAir}
  0.005,                                  !- Zone Humidification Design Supply Air Humidity Ratio Difference {kgWater/kgDryAir}
  ,                                       !- Zone Humidistat Dehumidification Set Point Schedule Name
  ,                                       !- Zone Humidistat Humidification Set Point Schedule Name
  ,                                       !- Design Zone Air Distribution Effectiveness in Cooling Mode
  ,                                       !- Design Zone Air Distribution Effectiveness in Heating Mode
  ,                                       !- Design Zone Secondary Recirculation Fraction {dimensionless}
  ,                                       !- Design Minimum Zone Ventilation Efficiency {dimensionless}
  Coincident;                             !- Sizing Option

OS:ZoneHVAC:EquipmentList,
  {c51c0a16-125e-41bd-b743-2402bae4bc9a}, !- Handle
  Zone HVAC Equipment List 2,             !- Name
  {1ccd6c44-f950-4ac4-bfd3-2c2cbe185ff0}; !- Thermal Zone

OS:AdditionalProperties,
  {3e79ff2e-6be2-40e6-b948-fecb8b5c6e98}, !- Handle
  {1ccd6c44-f950-4ac4-bfd3-2c2cbe185ff0}, !- Object Name
  ObjectType,                             !- Feature Name 1
  String,                                 !- Feature Data Type 1
  attic - vented;                         !- Feature Value 1

OS:Space,
  {595ace30-97a8-40c4-bcd8-ca9fcb58227e}, !- Handle
  attic - vented 1,                       !- Name
  ,                                       !- Space Type Name
  ,                                       !- Default Construction Set Name
  ,                                       !- Default Schedule Set Name
  ,                                       !- Direction of Relative North {deg}
  ,                                       !- X Origin {m}
  ,                                       !- Y Origin {m}
  ,                                       !- Z Origin {m}
  ,                                       !- Building Story Name
  {1ccd6c44-f950-4ac4-bfd3-2c2cbe185ff0}, !- Thermal Zone Name
  ,                                       !- Part of Total Floor Area
  ,                                       !- Design Specification Outdoor Air Object Name
  ,                                       !- Building Unit Name
  356.390921899745;                       !- Volume {m3}

OS:Material,
  {777136ba-5eac-4dec-96a7-5d5e06e3e4bf}, !- Handle
  asphalt or fiberglass shingles,         !- Name
  Rough,                                  !- Roughness
  0.00635,                                !- Thickness {m}
  0.162714,                               !- Conductivity {W/m-K}
  1121.4,                                 !- Density {kg/m3}
  1465.45,                                !- Specific Heat {J/kg-K}
  0.9,                                    !- Thermal Absorptance
  0.85,                                   !- Solar Absorptance
  0.85;                                   !- Visible Absorptance

OS:Material,
  {8d62fccb-29e3-411c-8a85-e0a3acbd3393}, !- Handle