
OS:Version,
  {3d14c9c6-ee8f-4491-9c21-57d5feb43c1f}, !- Handle
  3.9.0;                                  !- Version Identifier

OS:SimulationControl,
  {ded103d5-f4bc-4f59-a29e-d8dfd88507c7}, !- Handle
  ,                                       !- Do Zone Sizing Calculation
  ,                                       !- Do System Sizing Calculation
  ,                                       !- Do Plant Sizing Calculation
  No;                                     !- Run Simulation for Sizing Periods

OS:Timestep,
  {cec9a97f-77d8-452f-aa78-03641f5d653e}, !- Handle
  1;                                      !- Number of Timesteps per Hour

OS:ShadowCalculation,
  {79779280-3462-4d81-b9ea-3a5c69283d8a}, !- Handle
  PolygonClipping,                        !- Shading Calculation Method
  ,                                       !- Shading Calculation Update Frequency Method
  20,                                     !- Shading Calculation Update Frequency
  200,                                    !- Maximum Figures in Shadow Overlap Calculations
  ,                                       !- Polygon Clipping Algorithm
  512,                                    !- Pixel Counting Resolution
  ,                                       !- Sky Diffuse Modeling Algorithm
  No,                                     !- Output External Shading Calculation Results
  No,                                     !- Disable Self-Shading Within Shading Zone Groups
  No;                                     !- Disable Self-Shading From Shading Zone Groups to Other Zones

OS:SurfaceConvectionAlgorithm:Outside,
  {e769b890-2444-4709-a8c5-4ecce84801c6}, !- Handle
  DOE-2;                                  !- Algorithm

OS:SurfaceConvectionAlgorithm:Inside,
  {474656f6-37d4-45dc-8f8e-1f980b07df47}, !- Handle
  TARP;                                   !- Algorithm

OS:ZoneCapacitanceMultiplier:ResearchSpecial,
  {18fb6367-1237-47c4-ad73-8be6d0b34e2a}, !- Handle
  7,                                      !- Temperature Capacity Multiplier
  15,                                     !- Humidity Capacity Multiplier
  ;                                       !- Carbon Dioxide Capacity Multiplier

OS:ConvergenceLimits,
  {ca668f6b-b7db-441d-ab2b-0eac1f9181a8}, !- Handle
  0;                                      !- Minimum System Timestep {minutes}

OS:RunPeriod,
  {b72440ce-9d4b-491f-8950-2bc63576f318}, !- Handle
  Run Period 1,                           !- Name
  1,                                      !- Begin Month
  1,                                      !- Begin Day of Month
  12,                                     !- End Month
  31,                                     !- End Day of Month
  ,                                       !- Use Weather File Holidays and Special Days
  ,                                       !- Use Weather File Daylight Saving Period
  ,                                       !- Apply Weekend Holiday Rule
  ,                                       !- Use Weather File Rain Indicators
  ,                                       !- Use Weather File Snow Indicators
  ;                                       !- Number of Times Runperiod to be Repeated

OS:PerformancePrecisionTradeoffs,
  {7a42a948-55d6-4753-a140-858073199e19}, !- Handle
  ,                                       !- Use Coil Direct Solutions
  CarrollMRT;                             !- Zone Radiant Exchange Algorithm

OS:WeatherFile,
  {493a9330-53d4-4a75-85d5-3c4c59173539}, !- Handle
  Buffalo Niagara Intl Ap,                !- City
  NY,                                     !- State Province Region
  USA,                                    !- Country
  TMY3,                                   !- Data Source
  725280,                                 !- WMO Number
  42.93,                                  !- Latitude {deg}
  -78.73,                                 !- Longitude {deg}
  -5,                                     !- Time Zone {hr}
  215,                                    !- Elevation {m}
  /Users/nmoore/github/urbanopt-example-geojson-project/example_project/weather/USA_NY_Buffalo-Greater.Buffalo.Intl.AP.725280_TMY3.epw, !- Url
  6B50E0FF,                               !- Checksum
  ,                                       !- Start Date Actual Year
  Sunday;                                 !- Start Day of Week

OS:YearDescription,
  {c67ebce0-149a-4ced-9b19-5ff3633d7b18}, !- Handle
  2007,                                   !- Calendar Year
  ,                                       !- Day of Week for Start Day
  ;                                       !- Is Leap Year

OS:Site,
  {fb3a0664-1a54-4a6e-88b5-6d14ffe20c9c}, !- Handle
  Buffalo Niagara Intl Ap_NY,             !- Name
  42.93,                                  !- Latitude {deg}
  -78.73,                                 !- Longitude {deg}
  -5,                                     !- Time Zone {hr}
  215,                                    !- Elevation {m}
  Suburbs,                                !- Terrain
  Yes;                                    !- Keep Site Location Information

OS:RunPeriodControl:DaylightSavingTime,
  {ca8e0ab5-069a-4095-82e9-c0db71af691a}, !- Handle
  Mar 12,                                 !- Start Date
  Nov 5;                                  !- End Date

OS:Site:GroundTemperature:Shallow,
  {650c7cd4-3524-4389-8470-4e673bc6d7c0}, !- Handle
  4.30207395723828,                       !- January Surface Ground Temperature {C}
  2.29327249652502,                       !- February Surface Ground Temperature {C}
  2.13240047156047,                       !- March Surface Ground Temperature {C}
  3.08567940719286,                       !- April Surface Ground Temperature {C}
  6.91256312497526,                       !- May Surface Ground Temperature {C}
  10.7216195949507,                       !- June Surface Ground Temperature {C}
  14.0238679822574,                       !- July Surface Ground Temperature {C}
  16.1157611184724,                       !- August Surface Ground Temperature {C}
  16.2934789303462,                       !- September Surface Ground Temperature {C}
  14.5920754632847,                       !- October Surface Ground Temperature {C}
  11.374036348653,                        !- November Surface Ground Temperature {C}
  7.68182621661674;                       !- December Surface Ground Temperature {C}

OS:ThermalZone,
  {f6138027-bc80-4ba3-ae23-7e69f1c1512a}, !- Handle
  conditioned space,                      !- Name
  1,                                      !- Multiplier
  ,                                       !- Ceiling Height {m}
  692.06373070848,                        !- Volume {m3}
  ,                                       !- Floor Area {m2}
  ,                                       !- Zone Inside Convection Algorithm
  ,                                       !- Zone Outside Convection Algorithm
  ,                                       !- Zone Conditioning Equipment List Name
  {a5b67546-363c-4047-bf3c-72e9a1695186}, !- Zone Air Inlet Port List
  {371d145f-db18-40da-8002-7969a438c6c7}, !- Zone Air Exhaust Port List
  {f771a0d7-ef60-4bc2-bd04-d0bef42c3486}, !- Zone Air Node Name
  {0c9d9e3a-8ad9-471b-9133-e9e3d08d4dd6}, !- Zone Return Air Port List
  ,                                       !- Primary Daylighting Control Name
  ,                                       !- Fraction of Zone Controlled by Primary Daylighting Control
  ,                                       !- Secondary Daylighting Control Name
  ,                                       !- Fraction of Zone Controlled by Secondary Daylighting Control
  ,                                       !- Illuminance Map Name
  ,                                       !- Group Rendering Name
  {fd5ae33a-681e-4905-9c5e-4f8a82bf8a63}, !- Thermostat Name
  No;                                     !- Use Ideal Air Loads

OS:Node,
  {7e979f68-c3f0-49be-9f06-4dc98ca31637}, !- Handle
  Node 1,                                 !- Name
  {f771a0d7-ef60-4bc2-bd04-d0bef42c3486}, !- Inlet Port
  ;                                       !- Outlet Port

OS:Connection,
  {f771a0d7-ef60-4bc2-bd04-d0bef42c3486}, !- Handle
  {f6138027-bc80-4ba3-ae23-7e69f1c1512a}, !- Source Object
  11,                                     !- Outlet Port
  {7e979f68-c3f0-49be-9f06-4dc98ca31637}, !- Target Object
  2;                                      !- Inlet Port

OS:PortList,
  {a5b67546-363c-4047-bf3c-72e9a1695186}, !- Handle
  {f6138027-bc80-4ba3-ae23-7e69f1c1512a}; !- HVAC Component

OS:PortList,
  {371d145f-db18-40da-8002-7969a438c6c7}, !- Handle
  {f6138027-bc80-4ba3-ae23-7e69f1c1512a}; !- HVAC Component

OS:PortList,
  {0c9d9e3a-8ad9-471b-9133-e9e3d08d4dd6}, !- Handle
  {f6138027-bc80-4ba3-ae23-7e69f1c1512a}; !- HVAC Component

OS:Sizing:Zone,
  {263bcfce-cec9-428f-bc65-889836a8c461}, !- Handle
  {f6138027-bc80-4ba3-ae23-7e69f1c1512a}, !- Zone or ZoneList Name
  SupplyAirTemperature,                   !- Zone Cooling Design Supply Air Temperature Input Method
  14,                                     !- Zone Cooling Design Supply Air Temperature {C}
  11.11,                                  !- Zone Cooling Design Supply Air Temperature Difference {deltaC}
  SupplyAirTemperature,                   !- Zone Heating Design Supply Air Temperature Input Method
  40,                                     !- Zone Heating Design Supply Air Temperature {C}
  11.11,                                  !- Zone Heating Design Supply Air Temperature Difference {deltaC}
  0.0085,                                 !- Zone Cooling Design Supply Air Humidity Ratio {kg-H2O/kg-air}
  0.008,                                  !- Zone Heating Design Supply Air Humidity Ratio {kg-H2O/kg-air}
  ,                                       !- Zone Heating Sizing Factor
  ,                                       !- Zone Cooling Sizing Factor
  DesignDay,                              !- Cooling Design Air Flow Method
  ,                                       !- Cooling Design Air Flow Rate {m3/s}
  ,                                       !- Cooling Minimum Air Flow per Zone Floor Area {m3/s-m2}
  ,                                       !- Cooling Minimum Air Flow {m3/s}
  ,                                       !- Cooling Minimum Air Flow Fraction
  DesignDay,                              !- Heating Design Air Flow Method
  ,                                       !- Heating Design Air Flow Rate {m3/s}
  ,                                       !- Heating Maximum Air Flow per Zone Floor Area {m3/s-m2}
  ,                                       !- Heating Maximum Air Flow {m3/s}
  ,                                       !- Heating Maximum Air Flow Fraction
  No,                                     !- Account for Dedicated Outdoor Air System
  NeutralSupplyAir,                       !- Dedicated Outdoor Air System Control Strategy
  autosize,                               !- Dedicated Outdoor Air Low Setpoint Temperature for Design {C}
  autosize,                               !- Dedicated Outdoor Air High Setpoint Temperature for Design {C}
  Sensible Load Only No Latent Load,      !- Zone Load Sizing Method
  HumidityRatioDifference,                !- Zone Latent Cooling Design Supply Air Humidity Ratio Input Method
  ,                                       !- Zone Dehumidification Design Supply Air Humidity Ratio {kgWater/kgDryAir}
  0.005,                                  !- Zone Cooling Design Supply Air Humidity Ratio Difference {kgWater/kgDryAir}
  HumidityRatioDifference,                !- Zone Latent Heating Design Supply Air Humidity Ratio Input Method
  ,                                       !- Zone Humidification Design Supply Air Humidity Ratio {kgWater/kgDryAir}
  0.005,                                  !- Zone Humidification Design Supply Air Humidity Ratio Difference {kgWater/kgDryAir}
  ,                                       !- Zone Humidistat Dehumidification Set Point Schedule Name
  ,                                       !- Zone Humidistat Humidification Set Point Schedule Name
  ,                                       !- Design Zone Air Distribution Effectiveness in Cooling Mode
  ,                                       !- Design Zone Air Distribution Effectiveness in Heating Mode
  ,                                       !- Design Zone Secondary Recirculation Fraction {dimensionless}
  ,                                       !- Design Minimum Zone Ventilation Efficiency {dimensionless}
  Coincident;                             !- Sizing Option

OS:ZoneHVAC:EquipmentList,
  {99d6b691-93be-4192-8687-c9176ba4f29a}, !- Handle
  Zone HVAC Equipment List 1,             !- Name
  {f6138027-bc80-4ba3-ae23-7e69f1c1512a}, !- Thermal Zone
  ,                                       !- Load Distribution Scheme
  {d54d1944-1726-4dd1-b869-bb882d45221d}, !- Zone Equipment 1
  1,                                      !- Zone Equipment Cooling Sequence 1
  1,                                      !- Zone Equipment Heating or No-Load Sequence 1
  {42f99e3b-8d33-427b-b474-8578dd897a3e}, !- Zone Equipment Sequential Cooling Fraction Schedule Name 1
  {77f9625a-570d-44a8-8b7a-f02730da0a69}; !- Zone Equipment Sequential Heating Fraction Schedule Name 1

OS:AdditionalProperties,
  {0879cfea-9883-4254-bbf4-e451f65fdb14}, !- Handle
  {f6138027-bc80-4ba3-ae23-7e69f1c1512a}, !- Object Name
  ObjectType,                             !- Feature Name 1
  String,                                 !- Feature Data Type 1
  conditioned space;                      !- Feature Value 1

OS:Space,
  {290f5d0d-dc3f-48e5-86d1-5a40dcf83f1e}, !- Handle
  conditioned space 1,                    !- Name
  ,                                       !- Space Type Name
  ,                                       !- Default Construction Set Name
  ,                                       !- Default Schedule Set Name
  ,                                       !- Direction of Relative North {deg}
  ,                                       !- X Origin {m}
  ,                                       !- Y Origin {m}
  ,                                       !- Z Origin {m}
  ,                                       !- Building Story Name
  {f6138027-bc80-4ba3-ae23-7e69f1c1512a}, !- Thermal Zone Name
  ,                                       !- Part of Total Floor Area
  ,                                       !- Design Specification Outdoor Air Object Name
  ,                                       !- Building Unit Name
  692.06373070848;                        !- Volume {m3}

OS:Schedule:Ruleset,
  {e1ea00fb-30db-4b0a-85ff-a143abcf2f78}, !- Handle
  heating setpoint,                       !- Name
  {95aa3bf6-9f8c-4a39-9909-c0ea131f7698}, !- Schedule Type Limits Name
  {5600c123-4ec1-4af4-b956-bf691307a804}; !- Default Day Schedule Name

OS:Schedule:Day,
  {5600c123-4ec1-4af4-b956-bf691307a804}, !- Handle
  heating setpoint default day,           !- Name
  {95aa3bf6-9f8c-4a39-9909-c0ea131f7698}, !- Schedule Type Limits Name
  ,                                       !- Interpolate to Timestep
  24,                                     !- Hour 1
  0,                                      !- Minute 1
  0;                                      !- Value Until Time 1

OS:Schedule:Rule,
  {6a69e079-65f0-4dc4-80ab-c82f0a1165d7}, !- Handle
  heating setpoint allday rule,           !- Name
  {e1ea00fb-30db-4b0a-85ff-a143abcf2f78}, !- Schedule Ruleset Name
  0,                                      !- Rule Order
  {c71a3ce4-75f1-4560-93d8-ba4fe1bde429}, !- Day Schedule Name
  Yes,                                    !- Apply Sunday
  Yes,                                    !- Apply Monday
  Yes,                                    !- Apply Tuesday
  Yes,                                    !- Apply Wednesday
  Yes,                                    !- Apply Thursday
  Yes,                                    !- Apply Friday
  Yes,                                    !- Apply Saturday
  DateRange,                              !- Date Specification Type
  1,                                      !- Start Month
  1,                                      !- Start Day
  12,                                     !- End Month
  31;                                     !- End Day

OS:Schedule:Day,
  {c71a3ce4-75f1-4560-93d8-ba4fe1bde429}, !- Handle
  heating setpoint day,                   !- Name
  {95aa3bf6-9f8c-4a39-9909-c0ea131f7698}, !- Schedule Type Limits Name
  ,                                       !- Interpolate to Timestep
  24,                                     !- Hour 1
  0,                                      !- Minute 1
  20;                                     !- Value Until Time 1

OS:Schedule:Ruleset,
  {dcc04b3c-7307-4914-9386-5cd37d0e052e}, !- Handle
  cooling setpoint,                       !- Name
  {95aa3bf6-9f8c-4a39-9909-c0ea131f7698}, !- Schedule Type Limits Name
  {d92b2c45-36d3-47dc-ac1d-2c18fa9389ed}; !- Default Day Schedule Name

OS:Schedule:Day,
  {d92b2c45-36d3-47dc-ac1d-2c18fa9389ed}, !- Handle
  cooling setpoint default day,           !- Name
  {95aa3bf6-9f8c-4a39-9909-c0ea131f7698}, !- Schedule Type Limits Name
  ,                                       !- Interpolate to Timestep
  24,                                     !- Hour 1
  0,                                      !- Minute 1
  0;                                      !- Value Until Time 1

OS:Schedule:Rule,
  {6d56ceb6-fa49-458e-a3c5-bc16e1a8e3e0}, !- Handle
  cooling setpoint allday rule,           !- Name
  {dcc04b3c-7307-4914-9386-5cd37d0e052e}, !- Schedule Ruleset Name
  0,                                      !- Rule Order
  {ce2adcb6-8e5f-447e-9d0a-b52535ea94b6}, !- Day Schedule Name
  Yes,                                    !- Apply Sunday
  Yes,                                    !- Apply Monday
  Yes,                                    !- Apply Tuesday
  Yes,                                    !- Apply Wednesday
  Yes,                                    !- Apply Thursday
  Yes,                                    !- Apply Friday
  Yes,                                    !- Apply Saturday
  DateRange,                              !- Date Specification Type
  1,                                      !- Start Month
  1,                                      !- Start Day
  12,                                     !- End Month
  31;                                     !- End Day

OS:Schedule:Day,
  {ce2adcb6-8e5f-447e-9d0a-b52535ea94b6}, !- Handle
  cooling setpoint day,                   !- Name
  {95aa3bf6-9f8c-4a39-9909-c0ea131f7698}, !- Schedule Type Limits Name
  ,                                       !- Interpolate to Timestep
  24,                                     !- Hour 1
  0,                                      !- Minute 1
  25.5555555555556;                       !- Value Until Time 1

OS:ThermostatSetpoint:DualSetpoint,
  {fd5ae33a-681e-4905-9c5e-4f8a82bf8a63}, !- Handle
  conditioned space temperature setpoint, !- Name
  {e1ea00fb-30db-4b0a-85ff-a143abcf2f78}, !- Heating Setpoint Temperature Schedule Name
  {dcc04b3c-7307-4914-9386-5cd37d0e052e}, !- Cooling Setpoint Temperature Schedule Name
  0;                                      !- Temperature Difference Between Cutout And Setpoint {deltaC}

OS:ScheduleTypeLimits,
  {95aa3bf6-9f8c-4a39-9909-c0ea131f7698}, !- Handle
  Temperature,                            !- Name
  ,                                       !- Lower Limit Value
  ,                                       !- Upper Limit Value
  Continuous,                             !- Numeric Type
  Temperature;                            !- Unit Type

OS:Surface,
  {3985fff4-1884-4999-b1b3-d0d0d4c8a803}, !- Handle
  Roof1,                                  !- Name
  RoofCeiling,                            !- Surface Type
  {fe5cd4ef-d489-4b4c-aec2-80be121ace95}, !- Construction Name
  {f31280bb-fb3a-485e-91de-ddccd7003b87}, !- Space Name
  Outdoors,                               !- Outside Boundary Condition
  ,                                       !- Outside Boundary Condition Object
  SunExposed,                             !- Sun Exposure
  WindExposed,                            !- Wind Exposure
  ,                                       !- View Factor to Ground
  ,                                       !- Number of Vertices
  -26.9347048849634, 58.0557891618865, 2.4384, !- X,Y,Z Vertex 1 {m}
  -26.9347048849634, 46.7895631136661, 8.0715130241102, !- X,Y,Z Vertex 2 {m}
  -14.3386812381136, 46.7895631136661, 8.0715130241102, !- X,Y,Z Vertex 3 {m}
  -14.3386812381136, 58.0557891618865, 2.4384; !- X,Y,Z Vertex 4 {m}

OS:AdditionalProperties,
  {024a1fdb-e6c0-4ee6-b9ca-c0b46806dfb7}, !- Handle
  {3985fff4-1884-4999-b1b3-d0d0d4c8a803}, !- Object Name
  Length,                                 !- Feature Name 1
  Double,                                 !- Feature Data Type 1
  41.325536899113608,                     !- Feature Value 1
  Width,                                  !- Feature Name 2
  Double,                                 !- Feature Data Type 2
  41.325536899113601,                     !- Feature Value 2
  Azimuth,                                !- Feature Name 3
  Integer,                                !- Feature Data Type 3
  0,                                      !- Feature Value 3
  Tilt,                                   !- Feature Name 4
  Double,                                 !- Feature Data Type 4
  0.5,                                    !- Feature Value 4
  SurfaceType,                            !- Feature Name 5
  String,                                 !- Feature Data Type 5
  Roof;                                   !- Feature Value 5

OS:ThermalZone,
  {0e3d4fa1-2b2f-4ea1-8045-fc7156090aa0}, !- Handle
  attic - vented,                         !- Name
  1,                                      !- Multiplier
  ,                                       !- Ceiling Height {m}
  356.389957095237,                       !- Volume {m3}
  ,                                       !- Floor Area {m2}
  ,                                       !- Zone Inside Convection Algorithm
  ,                                       !- Zone Outside Convection Algorithm
  ,                                       !- Zone Conditioning Equipment List Name
  {dbf2d5ee-e73a-4ac7-8d36-61f1c97b6dc4}, !- Zone Air Inlet Port List
  {9b1d8a9b-2eea-428e-9a8a-57d91bb3b626}, !- Zone Air Exhaust Port List
  {e47fc225-6fef-40b9-acb8-0716651ba352}, !- Zone Air Node Name
  {b500fd74-7660-489f-b100-6453d01ecb86}, !- Zone Return Air Port List
  ,                                       !- Primary Daylighting Control Name
  ,                                       !- Fraction of Zone Controlled by Primary Daylighting Control
  ,                                       !- Secondary Daylighting Control Name
  ,                                       !- Fraction of Zone Controlled by Secondary Daylighting Control
  ,                                       !- Illuminance Map Name
  ,                                       !- Group Rendering Name
  ,                                       !- Thermostat Name
  No;                                     !- Use Ideal Air Loads

OS:Node,
  {80a8140d-1df4-47b6-be91-06d9bc474fa7}, !- Handle
  Node 2,                                 !- Name
  {e47fc225-6fef-40b9-acb8-0716651ba352}, !- Inlet Port
  ;                                       !- Outlet Port

OS:Connection,
  {e47fc225-6fef-40b9-acb8-0716651ba352}, !- Handle
  {0e3d4fa1-2b2f-4ea1-8045-fc7156090aa0}, !- Source Object
  11,                                     !- Outlet Port
  {80a8140d-1df4-47b6-be91-06d9bc474fa7}, !- Target Object
  2;                                      !- Inlet Port

OS:PortList,
  {dbf2d5ee-e73a-4ac7-8d36-61f1c97b6dc4}, !- Handle
  {0e3d4fa1-2b2f-4ea1-8045-fc7156090aa0}; !- HVAC Component

OS:PortList,
  {9b1d8a9b-2eea-428e-9a8a-57d91bb3b626}, !- Handle
  {0e3d4fa1-2b2f-4ea1-8045-fc7156090aa0}; !- HVAC Component

OS:PortList,
  {b500fd74-7660-489f-b100-6453d01ecb86}, !- Handle
  {0e3d4fa1-2b2f-4ea1-8045-fc7156090aa0}; !- HVAC Component

OS:Sizing:Zone,
  {64627667-b09a-41a7-9497-c652590c44ce}, !- Handle
  {0e3d4fa1-2b2f-4ea1-8045-fc7156090aa0}, !- Zone or ZoneList Name
  SupplyAirTemperature,                   !- Zone Cooling Design Supply Air Temperature Input Method
  14,                                     !- Zone Cooling Design Supply Air Temperature {C}
  11.11,                                  !- Zone Cooling Design Supply Air Temperature Difference {deltaC}
  SupplyAirTemperature,                   !- Zone Heating Design Supply Air Temperature Input Method
  40,                                     !- Zone Heating Design Supply Air Temperature {C}
  11.11,                                  !- Zone Heating Design Supply Air Temperature Difference {deltaC}
  0.0085,                                 !- Zone Cooling Design Supply Air Humidity Ratio {kg-H2O/kg-air}
  0.008,                                  !- Zone Heating Design Supply Air Humidity Ratio {kg-H2O/kg-air}
  ,                                       !- Zone Heating Sizing Factor
  ,                                       !- Zone Cooling Sizing Factor
  DesignDay,                              !- Cooling Design Air Flow Method
  ,                                       !- Cooling Design Air Flow Rate {m3/s}
  ,                                       !- Cooling Minimum Air Flow per Zone Floor Area {m3/s-m2}
  ,                                       !- Cooling Minimum Air Flow {m3/s}
  ,                                       !- Cooling Minimum Air Flow Fraction
  DesignDay,                              !- Heating Design Air Flow Method
  ,                                       !- Heating Design Air Flow Rate {m3/s}
  ,                                       !- Heating Maximum Air Flow per Zone Floor Area {m3/s-m2}
  ,                                       !- Heating Maximum Air Flow {m3/s}
  ,                                       !- Heating Maximum Air Flow Fraction
  No,                                     !- Account for Dedicated Outdoor Air System
  NeutralSupplyAir,                       !- Dedicated Outdoor Air System Control Strategy
  autosize,                               !- Dedicated Outdoor Air Low Setpoint Temperature for Design {C}
  autosize,                               !- Dedicated Outdoor Air High Setpoint Temperature for Design {C}
  Sensible Load Only No Latent Load,      !- Zone Load Sizing Method
  HumidityRatioDifference,                !- Zone Latent Cooling Design Supply Air Humidity Ratio Input Method
  ,                                       !- Zone Dehumidification Design Supply Air Humidity Ratio {kgWater/kgDryAir}
  0.005,                                  !- Zone Cooling Design Supply Air Humidity Ratio Difference {kgWater/kgDryAir}
  HumidityRatioDifference,                !- Zone Latent Heating Design Supply Air Humidity Ratio Input Method
  ,                                       !- Zone Humidification Design Supply Air Humidity Ratio {kgWater/kgDryAir}
  0.005,                                  !- Zone Humidification Design Supply Air Humidity Ratio Difference {kgWater/kgDryAir}
  ,                                       !- Zone Humidistat Dehumidification Set Point Schedule Name
  ,                                       !- Zone Humidistat Humidification Set Point Schedule Name
  ,                                       !- Design Zone Air Distribution Effectiveness in Cooling Mode
  ,                                       !- Design Zone Air Distribution Effectiveness in Heating Mode
  ,                                       !- Design Zone Secondary Recirculation Fraction {dimensionless}
  ,                                       !- Design Minimum Zone Ventilation Efficiency {dimensionless}
  Coincident;                             !- Sizing Option

OS:ZoneHVAC:EquipmentList,
  {68ec3667-9f58-4b39-b554-fe239a9e2aa7}, !- Handle
  Zone HVAC Equipment List 2,             !- Name
  {0e3d4fa1-2b2f-4ea1-8045-fc7156090aa0}; !- Thermal Zone

OS:AdditionalProperties,
  {15fa0388-01e2-4a74-b500-986317326714}, !- Handle
  {0e3d4fa1-2b2f-4ea1-8045-fc7156090aa0}, !- Object Name
  ObjectType,                             !- Feature Name 1
  String,                                 !- Feature Data Type 1
  attic - vented;                         !- Feature Value 1

OS:Space,
  {f31280bb-fb3a-485e-91de-ddccd7003b87}, !- Handle
  attic - vented 1,                       !- Name
  ,                                       !- Space Type Name
  ,                                       !- Default Construction Set Name
  ,                                       !- Default Schedule Set Name
  ,                                       !- Direction of Relative North {deg}
  ,                                       !- X Origin {m}
  ,                                       !- Y Origin {m}
  ,                                       !- Z Origin {m}
  ,                                       !- Building Story Name
  {0e3d4fa1-2b2f-4ea1-8045-fc7156090aa0}, !- Thermal Zone Name
  ,                                       !- Part of Total Floor Area
  ,                                       !- Design Specification Outdoor Air Object Name
  ,                                       !- Building Unit Name
  356.389957095237;                       !- Volume {m3}

OS:Material,
  {60198699-1a70-4c43-b06f-683e6c60e2c8}, !- Handle
  asphalt or fiberglass shingles,         !- Name
  Rough,                                  !- Roughness
  0.00635,                                !- Thickness {m}
  0.162714,                               !- Conductivity {W/m-K}
  1121.4,                                 !- Density {kg/m3}
  1465.45,                                !- Specific Heat {J/kg-K}
  0.9,                                    !- Thermal Absorptance
  0.85,                                   !- Solar Absorptance
  0.85;                                   !- Visible Absorptance

OS:Material,
  {102cad83-b63e-4583-b025-42c8241f26ca}, !- Handle