
OS:Version,
  {b0cce2f2-8c7c-4fa5-ad5d-4628adc9006a}, !- Handle
  3.10.0;                                 !- Version Identifier

OS:SimulationControl,
  {ffa7c544-8b39-4704-920f-2eff44eb3e5a}, !- Handle
  ,                                       !- Do Zone Sizing Calculation
  ,                                       !- Do System Sizing Calculation
  ,                                       !- Do Plant Sizing Calculation
  No;                                     !- Run Simulation for Sizing Periods

OS:Timestep,
  {3af6023d-e4c8-440a-b31b-d0b4b9d3d8f8}, !- Handle
  1;                                      !- Number of Timesteps per Hour

OS:ShadowCalculation,
  {4fcd7bc3-7e2c-4ba6-ba25-afcd35cbac35}, !- Handle
  PolygonClipping,                        !- Shading Calculation Method
  ,                                       !- Shading Calculation Update Frequency Method
  20,                                     !- Shading Calculation Update Frequency
  200,                                    !- Maximum Figures in Shadow Overlap Calculations
  ,                                       !- Polygon Clipping Algorithm
  512,                                    !- Pixel Counting Resolution
  ,                                       !- Sky Diffuse Modeling Algorithm
  No,                                     !- Output External Shading Calculation Results
  No,                                     !- Disable Self-Shading Within Shading Zone Groups
  No;                                     !- Disable Self-Shading From Shading Zone Groups to Other Zones

OS:SurfaceConvectionAlgorithm:Outside,
  {1fc8ec04-9391-49f5-af60-80ef3aa78369}, !- Handle
  DOE-2;                                  !- Algorithm

OS:SurfaceConvectionAlgorithm:Inside,
  {49cf65d6-f152-4274-9ac3-4f02f575bab3}, !- Handle
  TARP;                                   !- Algorithm

OS:ZoneCapacitanceMultiplier:ResearchSpecial,
  {f4c2cfb5-42ee-4bb9-8f6e-9fcec522bcda}, !- Handle
  7,                                      !- Temperature Capacity Multiplier
  15,                                     !- Humidity Capacity Multiplier
  ;                                       !- Carbon Dioxide Capacity Multiplier

OS:ConvergenceLimits,
  {6ae4d654-b64c-400e-94e6-7a3bcc07c530}, !- Handle
  0;                                      !- Minimum System Timestep {minutes}

OS:RunPeriod,
  {a1a5d925-3c5f-4775-a0df-819847e4bed7}, !- Handle
  Run Period 1,                           !- Name
  1,                                      !- Begin Month
  1,                                      !- Begin Day of Month
  12,                                     !- End Month
  31,                                     !- End Day of Month
  ,                                       !- Use Weather File Holidays and Special Days
  ,                                       !- Use Weather File Daylight Saving Period
  ,                                       !- Apply Weekend Holiday Rule
  ,                                       !- Use Weather File Rain Indicators
  ,                                       !- Use Weather File Snow Indicators
  ;                                       !- Number of Times Runperiod to be Repeated

OS:PerformancePrecisionTradeoffs,
  {5b2ac025-059a-49f5-a4cd-fcb0393c1f4d}, !- Handle
  ,                                       !- Use Coil Direct Solutions
  CarrollMRT;                             !- Zone Radiant Exchange Algorithm

OS:WeatherFile,
  {a03f80db-8037-4b20-876a-496ac331c462}, !- Handle
  Buffalo Niagara Intl Ap,                !- City
  NY,                                     !- State Province Region
  USA,                                    !- Country
  TMY3,                                   !- Data Source
  725280,                                 !- WMO Number
  42.93,                                  !- Latitude {deg}
  -78.73,                                 !- Longitude {deg}
  -5,                                     !- Time Zone {hr}
  215,                                    !- Elevation {m}
  /Users/nmoore/github/urbanopt-example-geojson-project/example_project/weather/USA_NY_Buffalo-Greater.Buffalo.Intl.AP.725280_TMY3.epw, !- Url
  6B50E0FF,                               !- Checksum
  ,                                       !- Start Date Actual Year
  Sunday;                                 !- Start Day of Week

OS:YearDescription,
  {deb0cffa-98eb-4c0f-9744-4997bd3fa6d3}, !- Handle
  2007,                                   !- Calendar Year
  ,                                       !- Day of Week for Start Day
  ;                                       !- Is Leap Year

OS:Site,
  {2d577d28-8367-46a4-8e20-b71e8a06f8cd}, !- Handle
  Buffalo Niagara Intl Ap_NY,             !- Name
  42.93,                                  !- Latitude {deg}
  -78.73,                                 !- Longitude {deg}
  -5,                                     !- Time Zone {hr}
  215,                                    !- Elevation {m}
  Suburbs,                                !- Terrain
  Yes;                                    !- Keep Site Location Information

OS:RunPeriodControl:DaylightSavingTime,
  {1cc8f1cb-339f-46aa-9ec1-e0efb6949563}, !- Handle
  Mar 12,                                 !- Start Date
  Nov 5;                                  !- End Date

OS:Site:GroundTemperature:Shallow,
  {4f02a2a4-c37c-4bb0-b12b-b61d73b272dc}, !- Handle
  4.30207395723828,                       !- January Surface Ground Temperature {C}
  2.29327249652502,                       !- February Surface Ground Temperature {C}
  2.13240047156047,                       !- March Surface Ground Temperature {C}
  3.08567940719286,                       !- April Surface Ground Temperature {C}
  6.91256312497526,                       !- May Surface Ground Temperature {C}
  10.7216195949507,                       !- June Surface Ground Temperature {C}
  14.0238679822574,                       !- July Surface Ground Temperature {C}
  16.1157611184724,                       !- August Surface Ground Temperature {C}
  16.2934789303462,                       !- September Surface Ground Temperature {C}
  14.5920754632847,                       !- October Surface Ground Temperature {C}
  11.374036348653,                        !- November Surface Ground Temperature {C}
  7.68182621661674;                       !- December Surface Ground Temperature {C}

OS:ThermalZone,
  {7122b4bf-2064-476e-a5ed-d0dc16b3cde4}, !- Handle
  conditioned space,                      !- Name
  1,                                      !- Multiplier
  ,                                       !- Ceiling Height {m}
  346.03186535424,                        !- Volume {m3}
  ,                                       !- Floor Area {m2}
  ,                                       !- Zone Inside Convection Algorithm
  ,                                       !- Zone Outside Convection Algorithm
  ,                                       !- Zone Conditioning Equipment List Name
  {7465cd01-d33b-4557-826f-c296c465c6b0}, !- Zone Air Inlet Port List
  {fa366418-e372-4228-b4a6-48b232359f0f}, !- Zone Air Exhaust Port List
  {0f543175-6185-4503-be9c-52d69652015c}, !- Zone Air Node Name
  {073910ba-852f-4c03-bbef-f000e272995b}, !- Zone Return Air Port List
  ,                                       !- Primary Daylighting Control Name
  ,                                       !- Fraction of Zone Controlled by Primary Daylighting Control
  ,                                       !- Secondary Daylighting Control Name
  ,                                       !- Fraction of Zone Controlled by Secondary Daylighting Control
  ,                                       !- Illuminance Map Name
  ,                                       !- Group Rendering Name
  {a4faab1d-65d8-42e4-be50-7f34dbe0070b}, !- Thermostat Name
  No;                                     !- Use Ideal Air Loads

OS:Node,
  {f1abec75-0160-404b-bac8-60a1b81a3f61}, !- Handle
  Node 1,                                 !- Name
  {0f543175-6185-4503-be9c-52d69652015c}, !- Inlet Port
  ;                                       !- Outlet Port

OS:Connection,
  {0f543175-6185-4503-be9c-52d69652015c}, !- Handle
  {7122b4bf-2064-476e-a5ed-d0dc16b3cde4}, !- Source Object
  11,                                     !- Outlet Port
  {f1abec75-0160-404b-bac8-60a1b81a3f61}, !- Target Object
  2;                                      !- Inlet Port

OS:PortList,
  {7465cd01-d33b-4557-826f-c296c465c6b0}, !- Handle
  {7122b4bf-2064-476e-a5ed-d0dc16b3cde4}, !- HVAC Component
  {be6c28e6-07d4-40de-baf6-6d7154d78e9c}; !- Port 1

OS:PortList,
  {fa366418-e372-4228-b4a6-48b232359f0f}, !- Handle
  {7122b4bf-2064-476e-a5ed-d0dc16b3cde4}; !- HVAC Component

OS:PortList,
  {073910ba-852f-4c03-bbef-f000e272995b}, !- Handle
  {7122b4bf-2064-476e-a5ed-d0dc16b3cde4}, !- HVAC Component
  {1ded3f17-399e-4cce-aecd-67a31e476cc0}; !- Port 1

OS:Sizing:Zone,
  {0a600e56-d97b-4da2-a443-09e4c980b7ae}, !- Handle
  {7122b4bf-2064-476e-a5ed-d0dc16b3cde4}, !- Zone or ZoneList Name
  SupplyAirTemperature,                   !- Zone Cooling Design Supply Air Temperature Input Method
  14,                                     !- Zone Cooling Design Supply Air Temperature {C}
  11.11,                                  !- Zone Cooling Design Supply Air Temperature Difference {deltaC}
  SupplyAirTemperature,                   !- Zone Heating Design Supply Air Temperature Input Method
  40,                                     !- Zone Heating Design Supply Air Temperature {C}
  11.11,                                  !- Zone Heating Design Supply Air Temperature Difference {deltaC}
  0.0085,                                 !- Zone Cooling Design Supply Air Humidity Ratio {kg-H2O/kg-air}
  0.008,                                  !- Zone Heating Design Supply Air Humidity Ratio {kg-H2O/kg-air}
  ,                                       !- Zone Heating Sizing Factor
  ,                                       !- Zone Cooling Sizing Factor
  DesignDay,                              !- Cooling Design Air Flow Method
  ,                                       !- Cooling Design Air Flow Rate {m3/s}
  ,                                       !- Cooling Minimum Air Flow per Zone Floor Area {m3/s-m2}
  ,                                       !- Cooling Minimum Air Flow {m3/s}
  ,                                       !- Cooling Minimum Air Flow Fraction
  DesignDay,                              !- Heating Design Air Flow Method
  ,                                       !- Heating Design Air Flow Rate {m3/s}
  ,                                       !- Heating Maximum Air Flow per Zone Floor Area {m3/s-m2}
  ,                                       !- Heating Maximum Air Flow {m3/s}
  ,                                       !- Heating Maximum Air Flow Fraction
  No,                                     !- Account for Dedicated Outdoor Air System
  NeutralSupplyAir,                       !- Dedicated Outdoor Air System Control Strategy
  autosize,                               !- Dedicated Outdoor Air Low Setpoint Temperature for Design {C}
  autosize,                               !- Dedicated Outdoor Air High Setpoint Temperature for Design {C}
  Sensible Load Only No Latent Load,      !- Zone Load Sizing Method
  HumidityRatioDifference,                !- Zone Latent Cooling Design Supply Air Humidity Ratio Input Method
  ,                                       !- Zone Dehumidification Design Supply Air Humidity Ratio {kgWater/kgDryAir}
  0.005,                                  !- Zone Cooling Design Supply Air Humidity Ratio Difference {kgWater/kgDryAir}
  HumidityRatioDifference,                !- Zone Latent Heating Design Supply Air Humidity Ratio Input Method
  ,                                       !- Zone Humidification Design Supply Air Humidity Ratio {kgWater/kgDryAir}
  0.005,                                  !- Zone Humidification Design Supply Air Humidity Ratio Difference {kgWater/kgDryAir}
  ,                                       !- Zone Humidistat Dehumidification Set Point Schedule Name
  ,                                       !- Zone Humidistat Humidification Set Point Schedule Name
  ,                                       !- Design Zone Air Distribution Effectiveness in Cooling Mode
  ,                                       !- Design Zone Air Distribution Effectiveness in Heating Mode
  ,                                       !- Design Zone Secondary Recirculation Fraction {dimensionless}
  ,                                       !- Design Minimum Zone Ventilation Efficiency {dimensionless}
  Coincident;                             !- Sizing Option

OS:ZoneHVAC:EquipmentList,
  {9d98be95-1b53-4066-bb4e-9ddeaa5eb17f}, !- Handle
  Zone HVAC Equipment List 1,             !- Name
  {7122b4bf-2064-476e-a5ed-d0dc16b3cde4}, !- Thermal Zone
  ,                                       !- Load Distribution Scheme
  {c7905ae6-4f79-4e40-b732-d21fb4714fec}, !- Zone Equipment 1
  1,                                      !- Zone Equipment Cooling Sequence 1
  1,                                      !- Zone Equipment Heating or No-Load Sequence 1
  {00b935a4-9316-426e-b54b-aec36f317cbd}, !- Zone Equipment Sequential Cooling Fraction Schedule Name 1
  {ccda126f-5460-4354-ad7c-2d77af7c10b4}; !- Zone Equipment Sequential Heating Fraction Schedule Name 1

OS:AdditionalProperties,
  {164742e0-f88f-4b0a-8562-eda8c3b59ac5}, !- Handle
  {7122b4bf-2064-476e-a5ed-d0dc16b3cde4}, !- Object Name
  ObjectType,                             !- Feature Name 1
  String,                                 !- Feature Data Type 1
  conditioned space;                      !- Feature Value 1

OS:Space,
  {11f257b3-38f1-46f8-8d14-45f16eb5a9d1}, !- Handle
  conditioned space 1,                    !- Name
  ,                                       !- Space Type Name
  ,                                       !- Default Construction Set Name
  ,                                       !- Default Schedule Set Name
  ,                                       !- Direction of Relative North {deg}
  ,                                       !- X Origin {m}
  ,                                       !- Y Origin {m}
  ,                                       !- Z Origin {m}
  ,                                       !- Building Story Name
  {7122b4bf-2064-476e-a5ed-d0dc16b3cde4}, !- Thermal Zone Name
  ,                                       !- Part of Total Floor Area
  ,                                       !- Design Specification Outdoor Air Object Name
  ,                                       !- Building Unit Name
  346.03186535424;                        !- Volume {m3}

OS:Schedule:Ruleset,
  {a806487f-5ba6-482e-b89f-bb27a607b9b3}, !- Handle
  heating setpoint,                       !- Name
  {c764e502-e866-4800-b1b9-bc7f67458a56}, !- Schedule Type Limits Name
  {5875b004-5140-46f2-8879-ba7e217ef7d8}; !- Default Day Schedule Name

OS:Schedule:Day,
  {5875b004-5140-46f2-8879-ba7e217ef7d8}, !- Handle
  heating setpoint default day,           !- Name
  {c764e502-e866-4800-b1b9-bc7f67458a56}, !- Schedule Type Limits Name
  ,                                       !- Interpolate to Timestep
  24,                                     !- Hour 1
  0,                                      !- Minute 1
  0;                                      !- Value Until Time 1

OS:Schedule:Rule,
  {d008649e-8a35-4883-a6e1-5c673d5fe576}, !- Handle
  heating setpoint allday rule,           !- Name
  {a806487f-5ba6-482e-b89f-bb27a607b9b3}, !- Schedule Ruleset Name
  0,                                      !- Rule Order
  {741a8bb0-5fe0-4ef9-99e8-d5177173d007}, !- Day Schedule Name
  Yes,                                    !- Apply Sunday
  Yes,                                    !- Apply Monday
  Yes,                                    !- Apply Tuesday
  Yes,                                    !- Apply Wednesday
  Yes,                                    !- Apply Thursday
  Yes,                                    !- Apply Friday
  Yes,                                    !- Apply Saturday
  DateRange,                              !- Date Specification Type
  1,                                      !- Start Month
  1,                                      !- Start Day
  12,                                     !- End Month
  31;                                     !- End Day

OS:Schedule:Day,
  {741a8bb0-5fe0-4ef9-99e8-d5177173d007}, !- Handle
  heating setpoint day,                   !- Name
  {c764e502-e866-4800-b1b9-bc7f67458a56}, !- Schedule Type Limits Name
  ,                                       !- Interpolate to Timestep
  24,                                     !- Hour 1
  0,                                      !- Minute 1
  20;                                     !- Value Until Time 1

OS:Schedule:Ruleset,
  {c7620017-f22f-43a8-b2e3-b83aa32425cb}, !- Handle
  cooling setpoint,                       !- Name
  {c764e502-e866-4800-b1b9-bc7f67458a56}, !- Schedule Type Limits Name
  {7e46d0a3-8d7d-407a-a9db-24421ed9965b}; !- Default Day Schedule Name

OS:Schedule:Day,
  {7e46d0a3-8d7d-407a-a9db-24421ed9965b}, !- Handle
  cooling setpoint default day,           !- Name
  {c764e502-e866-4800-b1b9-bc7f67458a56}, !- Schedule Type Limits Name
  ,                                       !- Interpolate to Timestep
  24,                                     !- Hour 1
  0,                                      !- Minute 1
  0;                                      !- Value Until Time 1

OS:Schedule:Rule,
  {5aace28a-759c-4100-80cf-c64bc797b209}, !- Handle
  cooling setpoint allday rule,           !- Name
  {c7620017-f22f-43a8-b2e3-b83aa32425cb}, !- Schedule Ruleset Name
  0,                                      !- Rule Order
  {fc7075d0-9c9a-4669-a5fb-ab534937f8c4}, !- Day Schedule Name
  Yes,                                    !- Apply Sunday
  Yes,                                    !- Apply Monday
  Yes,                                    !- Apply Tuesday
  Yes,                                    !- Apply Wednesday
  Yes,                                    !- Apply Thursday
  Yes,                                    !- Apply Friday
  Yes,                                    !- Apply Saturday
  DateRange,                              !- Date Specification Type
  1,                                      !- Start Month
  1,                                      !- Start Day
  12,                                     !- End Month
  31;                                     !- End Day

OS:Schedule:Day,
  {fc7075d0-9c9a-4669-a5fb-ab534937f8c4}, !- Handle
  cooling setpoint day,                   !- Name
  {c764e502-e866-4800-b1b9-bc7f67458a56}, !- Schedule Type Limits Name
  ,                                       !- Interpolate to Timestep
  24,                                     !- Hour 1
  0,                                      !- Minute 1
  25.5555555555556;                       !- Value Until Time 1

OS:ThermostatSetpoint:DualSetpoint,
  {a4faab1d-65d8-42e4-be50-7f34dbe0070b}, !- Handle
  conditioned space temperature setpoint, !- Name
  {a806487f-5ba6-482e-b89f-bb27a607b9b3}, !- Heating Setpoint Temperature Schedule Name
  {c7620017-f22f-43a8-b2e3-b83aa32425cb}, !- Cooling Setpoint Temperature Schedule Name
  0;                                      !- Temperature Difference Between Cutout And Setpoint {deltaC}

OS:ScheduleTypeLimits,
  {c764e502-e866-4800-b1b9-bc7f67458a56}, !- Handle
  Temperature,                            !- Name
  ,                                       !- Lower Limit Value
  ,                                       !- Upper Limit Value
  Continuous,                             !- Numeric Type
  Temperature;                            !- Unit Type

OS:Surface,
  {314f1d26-8afc-4fbc-a691-eddc695a713c}, !- Handle
  Roof1,                                  !- Name
  RoofCeiling,                            !- Surface Type
  {2f1e3726-11a7-478c-90a8-4aca5dc307c3}, !- Construction Name
  {11f257b3-38f1-46f8-8d14-45f16eb5a9d1}, !- Space Name
  Outdoors,                               !- Outside Boundary Condition
  ,                                       !- Outside Boundary Condition Object
  SunExposed,                             !- Sun Exposure
  WindExposed,                            !- Wind Exposure
  ,                                       !- View Factor to Ground
  ,                                       !- Number of Vertices
  -5.95628646053898, 5.95628646053898, 2.4384, !- X,Y,Z Vertex 1 {m}
  -5.95628646053898, -5.95628646053898, 2.4384, !- X,Y,Z Vertex 2 {m}
  5.95628646053898, -5.95628646053898, 2.4384, !- X,Y,Z Vertex 3 {m}
  5.95628646053898, 5.95628646053898, 2.4384; !- X,Y,Z Vertex 4 {m}

OS:AdditionalProperties,
  {2bd642cb-92a2-4e32-9180-f76265cf1a3d}, !- Handle
  {314f1d26-8afc-4fbc-a691-eddc695a713c}, !- Object Name
  Length,                                 !- Feature Name 1
  Double,                                 !- Feature Data Type 1
  39.083244491725608,                     !- Feature Value 1
  Width,                                  !- Feature Name 2
  Double,                                 !- Feature Data Type 2
  39.083244491725608,                     !- Feature Value 2
  Azimuth,                                !- Feature Name 3
  Integer,                                !- Feature Data Type 3
  0,                                      !- Feature Value 3
  Tilt,                                   !- Feature Name 4
  Double,                                 !- Feature Data Type 4
  0,                                      !- Feature Value 4
  SurfaceType,                            !- Feature Name 5
  String,                                 !- Feature Data Type 5
  Roof;                                   !- Feature Value 5

OS:Material,
  {2571a783-a82f-4231-ba00-585e0ec0d8bf}, !- Handle
  asphalt or fiberglass shingles,         !- Name
  Rough,                                  !- Roughness
  0.00635,                                !- Thickness {m}
  0.162714,                               !- Conductivity {W/m-K}
  1121.4,                                 !- Density {kg/m3}
  1465.45,                                !- Specific Heat {J/kg-K}
  0.9,                                    !- Thermal Absorptance
  0.85,                                   !- Solar Absorptance
  0.85;                                   !- Visible Absorptance

OS:Material,
  {2cd17048-a8d1-425d-9f2e-7a8f51d589f8}, !- Handle
  roof stud and cavity,                   !- Name
  Rough,                                  !- Roughness
  0.0889,                                 !- Thickness {m}
  0.491900632004487,                      !- Conductivity {W/m-K}
  50.32683,                               !- Density {kg/m3}
  1063.80987585548,                       !- Specific Heat {J/kg-K}
  0.9,                                    !- Thermal Absorptance
  0.7,                                    !- Solar Absorptance
  0.7;                                    !- Visible Absorptance

OS:Material,
  {15b1f225-c635-4296-95a8-e476917fb463}, !- Handle
  gypsum board,                           !- Name
  Rough,                                  !- Roughness
  0.00254,                                !- Thickness {m}
  0.1602906,                              !- Conductivity {W/m-K}
  801,                                    !- Density {kg/m3}
  837.4,                                  !- Specific Heat {J/kg-K}
  0.9,                                    !- Thermal Absorptance
  0.6,                                    !- Solar Absorptance
  0.6;                                    !- Visible Absorptance

OS:Construction,
  {2f1e3726-11a7-478c-90a8-4aca5dc307c3}, !- Handle
  Roof1 construction,                     !- Name
  ,                                       !- Surface Rendering Name
  {2571a783-a82f-4231-ba00-585e0ec0d8bf}, !- Layer 1
  {2cd17048-a8d1-425d-9f2e-7a8f51d589f8}, !- Layer 2
  {15b1f225-c635-4296-95a8-e476917fb463}; !- Layer 3

OS:Surface,
  {8abacbc5-b4f6-4741-b128-eced336be411}, !- Handle
  Wall1,                                  !- Name
  Wall,                                   !- Surface Type
  {d553e432-c3dd-40c2-9422-ae4e247a7db0}, !- Construction Name
  {11f257b3-38f1-46f8-8d14-45f16eb5a9d1}, !- Space Name
  Outdoors,                               !- Outside Boundary Condition
  ,                                       !- Outside Boundary Condition Object
  SunExposed,                             !- Sun Exposure
  WindExposed,                            !- Wind Exposure
  ,                                       !- View Factor to Ground
  ,                                       !- Number of Vertices
  -3.01645308575712, 5.40745691424288, 0, !- X,Y,Z Vertex 1 {m}
  -3.01645308575712, 5.40745691424288, 4.8768, !- X,Y,Z Vertex 2 {m}
  5.40745691424288, 5.40745691424288, 4.8768, !- X,Y,Z Vertex 3 {m}
  5.40745691424288, 5.40745691424288, 0;  !- X,Y,Z Vertex 4 {m}

OS:AdditionalProperties,
  {2f07ecea-f3ed-40b4-8d20-2fcc0b4929b2}, !- Handle
  {8abacbc5-b4f6-4741-b128-eced336be411}, !- Object Name
  Length,                                 !- Feature Name 1
  Double,                                 !- Feature Data Type 1
  27.637499999999999,                     !- Feature Value 1
  Azimuth,                                !- Feature Name 2
  Integer,                                !- Feature Data Type 2
  0,                                      !- Feature Value 2
  Tilt,                                   !- Feature Name 3
  Double,                                 !- Feature Data Type 3
  90,                                     !- Feature Value 3
  SurfaceType,                            !- Feature Name 4
  String,                                 !- Feature Data Type 4
  Wall;                                   !- Feature Value 4

OS:Material,
  {da386990-3b07-4762-b8b1-955464f2616c}, !- Handle
  wood siding,                            !- Name
  Rough,                                  !- Roughness
  0.0254,                                 !- Thickness {m}
  0.1024175,                              !- Conductivity {W/m-K}
  544.68,                                 !- Density {kg/m3}
  1172.36,                                !- Specific Heat {J/kg-K}
  0.9,                                    !- Thermal Absorptance
  0.7,                                    !- Solar Absorptance
  0.7;                                    !- Visible Absorptance

OS:Material,
  {6dfd3e0c-554c-4bf2-b638-e00471c9c7bc}, !- Handle
  osb sheathing 0.5 in.,                  !- Name
  Rough,                                  !- Roughness
  0.0127,                                 !- Thickness {m}
  0.1154577,                              !- Conductivity {W/m-K}
  512.64,                                 !- Density {kg/m3}
  1214.23,                                !- Specific Heat {J/kg-K}
  0.9,                                    !- Thermal Absorptance
  0.7,                                    !- Solar Absorptance
  0.7;                                    !- Visible Absorptance

OS:Material,
  {4ffaf352-2266-4576-b5b0-ecd52e44513c}, !- Handle
  wall stud and cavity,                   !- Name
  Rough,                                  !- Roughness
  0.1397,                                 !- Thickness {m}
  0.0929021674204099,                     !- Conductivity {W/m-K}
  139.0536,                               !- Density {kg/m3}
  1170.23755760369,                       !- Specific Heat {J/kg-K}
  0.9,                                    !- Thermal Absorptance
  0.7,                                    !- Solar Absorptance
  0.7;                                    !- Visible Absorptance

OS:Material,
  {e8c2fe40-acf0-4d21-994d-c82881bdf37e}, !- Handle
  gypsum board 1,                         !- Name
  Rough,                                  !- Roughness
  0.0127,                                 !- Thickness {m}
  0.1602906,                              !- Conductivity {W/m-K}
  801,                                    !- Density {kg/m3}
  837.4,                                  !- Specific Heat {J/kg-K}
  0.9,                                    !- Thermal Absorptance
  0.6,                                    !- Solar Absorptance
  0.6;                                    !- Visible Absorptance

OS:Construction,
  {d553e432-c3dd-40c2-9422-ae4e247a7db0}, !- Handle
  Wall1 construction,                     !- Name
  ,                                       !- Surface Rendering Name
  {da386990-3b07-4762-b8b1-955464f2616c}, !- Layer 1
  {6dfd3e0c-554c-4bf2-b638-e00471c9c7bc}, !- Layer 2
  {4ffaf352-2266-4576-b5b0-ecd52e44513c}, !- Layer 3
  {e8c2fe40-acf0-4d21-994d-c82881bdf37e}; !- Layer 4

OS:Surface,
  {e4023e98-496e-44f0-b8a3-8dfb6b904eb9}, !- Handle
  Wall2,                                  !- Name
  Wall,                                   !- Surface Type
  {f62ab4d5-2bac-419b-b858-c947d935e7c0}, !- Construction Name
  {11f257b3-38f1-46f8-8d14-45f16eb5a9d1}, !- Space Name
  Outdoors,                               !- Outside Boundary Condition
  ,                                       !- Outside Boundary Condition Object
  SunExposed,                             !- Sun Exposure
  WindExposed,                            !- Wind Exposure
  ,                                       !- View Factor to Ground
  ,                                       !- Number of Vertices
  5.40745691424288, -1.19550191424288, 0, !- X,Y,Z Vertex 1 {m}
  5.40745691424288, -1.19550191424288, 4.8768, !- X,Y,Z Vertex 2 {m}
  5.40745691424288, -5.40745691424288, 4.8768, !- X,Y,Z Vertex 3 {m}
  5.40745691424288, -5.40745691424288, 0; !- X,Y,Z Vertex 4 {m}

OS:AdditionalProperties,
  {3788a9cb-bc95-4bf0-871a-301c95b72851}, !- Handle
  {e4023e98-496e-44f0-b8a3-8dfb6b904eb9}, !- Object Name
  Length,                                 !- Feature Name 1
  Double,                                 !- Feature Data Type 1
  13.81875,                               !- Feature Value 1
  Azimuth,                                !- Feature Name 2