
OS:Version,
  {0d32ebe5-c946-4395-9189-fdd3edc62229}, !- Handle
  3.9.0;                                  !- Version Identifier

OS:SimulationControl,
  {634f1a65-0fb9-4dff-8fd0-e94ca83fa5c5}, !- Handle
  ,                                       !- Do Zone Sizing Calculation
  ,                                       !- Do System Sizing Calculation
  ,                                       !- Do Plant Sizing Calculation
  No;                                     !- Run Simulation for Sizing Periods

OS:Timestep,
  {58c261c5-4193-40e5-85db-d753b5426396}, !- Handle
  1;                                      !- Number of Timesteps per Hour

OS:ShadowCalculation,
  {8818bbb1-6fca-45a2-8891-e97dac85905d}, !- Handle
  PolygonClipping,                        !- Shading Calculation Method
  ,                                       !- Shading Calculation Update Frequency Method
  20,                                     !- Shading Calculation Update Frequency
  200,                                    !- Maximum Figures in Shadow Overlap Calculations
  ,                                       !- Polygon Clipping Algorithm
  512,                                    !- Pixel Counting Resolution
  ,                                       !- Sky Diffuse Modeling Algorithm
  No,                                     !- Output External Shading Calculation Results
  No,                                     !- Disable Self-Shading Within Shading Zone Groups
  No;                                     !- Disable Self-Shading From Shading Zone Groups to Other Zones

OS:SurfaceConvectionAlgorithm:Outside,
  {886b22e9-dfa4-477c-bae1-d2aa8d0cbc99}, !- Handle
  DOE-2;                                  !- Algorithm

OS:SurfaceConvectionAlgorithm:Inside,
  {8ba3bc6b-044c-4fef-9655-694deb14cc36}, !- Handle
  TARP;                                   !- Algorithm

OS:ZoneCapacitanceMultiplier:ResearchSpecial,
  {deac439d-c037-416e-ae7b-72bb3cb01e63}, !- Handle
  7,                                      !- Temperature Capacity Multiplier
  15,                                     !- Humidity Capacity Multiplier
  ;                                       !- Carbon Dioxide Capacity Multiplier

OS:ConvergenceLimits,
  {00bf27e6-8019-4388-80e4-6784e58bd2ec}, !- Handle
  0;                                      !- Minimum System Timestep {minutes}

OS:RunPeriod,
  {9a3d4da5-a3b0-4de5-83df-9e2b452d8b94}, !- Handle
  Run Period 1,                           !- Name
  1,                                      !- Begin Month
  1,                                      !- Begin Day of Month
  12,                                     !- End Month
  31,                                     !- End Day of Month
  ,                                       !- Use Weather File Holidays and Special Days
  ,                                       !- Use Weather File Daylight Saving Period
  ,                                       !- Apply Weekend Holiday Rule
  ,                                       !- Use Weather File Rain Indicators
  ,                                       !- Use Weather File Snow Indicators
  ;                                       !- Number of Times Runperiod to be Repeated

OS:PerformancePrecisionTradeoffs,
  {ea696431-e79e-432f-a93b-be6b638dfbe2}, !- Handle
  ,                                       !- Use Coil Direct Solutions
  CarrollMRT;                             !- Zone Radiant Exchange Algorithm

OS:WeatherFile,
  {34d5ded1-1ff6-46f3-8103-c138f572c652}, !- Handle
  Buffalo Niagara Intl Ap,                !- City
  NY,                                     !- State Province Region
  USA,                                    !- Country
  TMY3,                                   !- Data Source
  725280,                                 !- WMO Number
  42.93,                                  !- Latitude {deg}
  -78.73,                                 !- Longitude {deg}
  -5,                                     !- Time Zone {hr}
  215,                                    !- Elevation {m}
  /Users/nmoore/github/urbanopt-example-geojson-project/example_project/weather/USA_NY_Buffalo-Greater.Buffalo.Intl.AP.725280_TMY3.epw, !- Url
  6B50E0FF,                               !- Checksum
  ,                                       !- Start Date Actual Year
  Sunday;                                 !- Start Day of Week

OS:YearDescription,
  {59ba75af-8a16-453c-b8a5-0edc7801851f}, !- Handle
  2007,                                   !- Calendar Year
  ,                                       !- Day of Week for Start Day
  ;                                       !- Is Leap Year

OS:Site,
  {b79ec51b-e63a-44ff-85c9-064343f80eff}, !- Handle
  Buffalo Niagara Intl Ap_NY,             !- Name
  42.93,                                  !- Latitude {deg}
  -78.73,                                 !- Longitude {deg}
  -5,                                     !- Time Zone {hr}
  215,                                    !- Elevation {m}
  Suburbs,                                !- Terrain
  Yes;                                    !- Keep Site Location Information

OS:RunPeriodControl:DaylightSavingTime,
  {0da502e5-d791-4f40-890c-d78046126c1f}, !- Handle
  Mar 12,                                 !- Start Date
  Nov 5;                                  !- End Date

OS:Site:GroundTemperature:Shallow,
  {d0104dfa-749f-444d-b026-310a360eec84}, !- Handle
  4.30207395723828,                       !- January Surface Ground Temperature {C}
  2.29327249652502,                       !- February Surface Ground Temperature {C}
  2.13240047156047,                       !- March Surface Ground Temperature {C}
  3.08567940719286,                       !- April Surface Ground Temperature {C}
  6.91256312497526,                       !- May Surface Ground Temperature {C}
  10.7216195949507,                       !- June Surface Ground Temperature {C}
  14.0238679822574,                       !- July Surface Ground Temperature {C}
  16.1157611184724,                       !- August Surface Ground Temperature {C}
  16.2934789303462,                       !- September Surface Ground Temperature {C}
  14.5920754632847,                       !- October Surface Ground Temperature {C}
  11.374036348653,                        !- November Surface Ground Temperature {C}
  7.68182621661674;                       !- December Surface Ground Temperature {C}

OS:ThermalZone,
  {62b1fc58-09db-47db-a085-f91c8ad4d7e6}, !- Handle
  conditioned space,                      !- Name
  1,                                      !- Multiplier
  ,                                       !- Ceiling Height {m}
  346.03186535424,                        !- Volume {m3}
  ,                                       !- Floor Area {m2}
  ,                                       !- Zone Inside Convection Algorithm
  ,                                       !- Zone Outside Convection Algorithm
  ,                                       !- Zone Conditioning Equipment List Name
  {ae50879a-4443-45d2-abfb-866228a81144}, !- Zone Air Inlet Port List
  {029a88de-e247-415f-910d-773f9583411f}, !- Zone Air Exhaust Port List
  {f308bcb0-2d9a-4ff4-a266-1b1c565045a0}, !- Zone Air Node Name
  {7807cf85-daf3-4b63-90de-40568f41e58e}, !- Zone Return Air Port List
  ,                                       !- Primary Daylighting Control Name
  ,                                       !- Fraction of Zone Controlled by Primary Daylighting Control
  ,                                       !- Secondary Daylighting Control Name
  ,                                       !- Fraction of Zone Controlled by Secondary Daylighting Control
  ,                                       !- Illuminance Map Name
  ,                                       !- Group Rendering Name
  {0dfdace8-d874-407e-ab35-4aea89b8f9b2}, !- Thermostat Name
  No;                                     !- Use Ideal Air Loads

OS:Node,
  {6209ed32-240f-4d0d-9655-745ad34ce7f1}, !- Handle
  Node 1,                                 !- Name
  {f308bcb0-2d9a-4ff4-a266-1b1c565045a0}, !- Inlet Port
  ;                                       !- Outlet Port

OS:Connection,
  {f308bcb0-2d9a-4ff4-a266-1b1c565045a0}, !- Handle
  {62b1fc58-09db-47db-a085-f91c8ad4d7e6}, !- Source Object
  11,                                     !- Outlet Port
  {6209ed32-240f-4d0d-9655-745ad34ce7f1}, !- Target Object
  2;                                      !- Inlet Port

OS:PortList,
  {ae50879a-4443-45d2-abfb-866228a81144}, !- Handle
  {62b1fc58-09db-47db-a085-f91c8ad4d7e6}, !- HVAC Component
  {3158395b-d886-4d5e-8083-0966fee80330}; !- Port 1

OS:PortList,
  {029a88de-e247-415f-910d-773f9583411f}, !- Handle
  {62b1fc58-09db-47db-a085-f91c8ad4d7e6}; !- HVAC Component

OS:PortList,
  {7807cf85-daf3-4b63-90de-40568f41e58e}, !- Handle
  {62b1fc58-09db-47db-a085-f91c8ad4d7e6}, !- HVAC Component
  {ae98c968-47be-4736-92d6-344ba1fa0556}; !- Port 1

OS:Sizing:Zone,
  {c249af4f-5a57-400f-90b4-a160ba96110d}, !- Handle
  {62b1fc58-09db-47db-a085-f91c8ad4d7e6}, !- Zone or ZoneList Name
  SupplyAirTemperature,                   !- Zone Cooling Design Supply Air Temperature Input Method
  14,                                     !- Zone Cooling Design Supply Air Temperature {C}
  11.11,                                  !- Zone Cooling Design Supply Air Temperature Difference {deltaC}
  SupplyAirTemperature,                   !- Zone Heating Design Supply Air Temperature Input Method
  40,                                     !- Zone Heating Design Supply Air Temperature {C}
  11.11,                                  !- Zone Heating Design Supply Air Temperature Difference {deltaC}
  0.0085,                                 !- Zone Cooling Design Supply Air Humidity Ratio {kg-H2O/kg-air}
  0.008,                                  !- Zone Heating Design Supply Air Humidity Ratio {kg-H2O/kg-air}
  ,                                       !- Zone Heating Sizing Factor
  ,                                       !- Zone Cooling Sizing Factor
  DesignDay,                              !- Cooling Design Air Flow Method
  ,                                       !- Cooling Design Air Flow Rate {m3/s}
  ,                                       !- Cooling Minimum Air Flow per Zone Floor Area {m3/s-m2}
  ,                                       !- Cooling Minimum Air Flow {m3/s}
  ,                                       !- Cooling Minimum Air Flow Fraction
  DesignDay,                              !- Heating Design Air Flow Method
  ,                                       !- Heating Design Air Flow Rate {m3/s}
  ,                                       !- Heating Maximum Air Flow per Zone Floor Area {m3/s-m2}
  ,                                       !- Heating Maximum Air Flow {m3/s}
  ,                                       !- Heating Maximum Air Flow Fraction
  No,                                     !- Account for Dedicated Outdoor Air System
  NeutralSupplyAir,                       !- Dedicated Outdoor Air System Control Strategy
  autosize,                               !- Dedicated Outdoor Air Low Setpoint Temperature for Design {C}
  autosize,                               !- Dedicated Outdoor Air High Setpoint Temperature for Design {C}
  Sensible Load Only No Latent Load,      !- Zone Load Sizing Method
  HumidityRatioDifference,                !- Zone Latent Cooling Design Supply Air Humidity Ratio Input Method
  ,                                       !- Zone Dehumidification Design Supply Air Humidity Ratio {kgWater/kgDryAir}
  0.005,                                  !- Zone Cooling Design Supply Air Humidity Ratio Difference {kgWater/kgDryAir}
  HumidityRatioDifference,                !- Zone Latent Heating Design Supply Air Humidity Ratio Input Method
  ,                                       !- Zone Humidification Design Supply Air Humidity Ratio {kgWater/kgDryAir}
  0.005,                                  !- Zone Humidification Design Supply Air Humidity Ratio Difference {kgWater/kgDryAir}
  ,                                       !- Zone Humidistat Dehumidification Set Point Schedule Name
  ,                                       !- Zone Humidistat Humidification Set Point Schedule Name
  ,                                       !- Design Zone Air Distribution Effectiveness in Cooling Mode
  ,                                       !- Design Zone Air Distribution Effectiveness in Heating Mode
  ,                                       !- Design Zone Secondary Recirculation Fraction {dimensionless}
  ,                                       !- Design Minimum Zone Ventilation Efficiency {dimensionless}
  Coincident;                             !- Sizing Option

OS:ZoneHVAC:EquipmentList,
  {543e7e5a-4ecc-44fa-af57-ca006b589dc5}, !- Handle
  Zone HVAC Equipment List 1,             !- Name
  {62b1fc58-09db-47db-a085-f91c8ad4d7e6}, !- Thermal Zone
  ,                                       !- Load Distribution Scheme
  {ca9d2b0e-a2ad-4cde-91f1-e76a982ae24b}, !- Zone Equipment 1
  1,                                      !- Zone Equipment Cooling Sequence 1
  1,                                      !- Zone Equipment Heating or No-Load Sequence 1
  {dd22aed8-970e-4756-b1c8-ad4028526774}, !- Zone Equipment Sequential Cooling Fraction Schedule Name 1
  {c214112b-568f-42ed-8d3c-4655047dcf81}; !- Zone Equipment Sequential Heating Fraction Schedule Name 1

OS:AdditionalProperties,
  {f896b589-4545-4a8f-9930-bf9e8576010b}, !- Handle
  {62b1fc58-09db-47db-a085-f91c8ad4d7e6}, !- Object Name
  ObjectType,                             !- Feature Name 1
  String,                                 !- Feature Data Type 1
  conditioned space;                      !- Feature Value 1

OS:Space,
  {aa807636-a771-4122-bd4d-70bad9f6c7b1}, !- Handle
  conditioned space 1,                    !- Name
  ,                                       !- Space Type Name
  ,                                       !- Default Construction Set Name
  ,                                       !- Default Schedule Set Name
  ,                                       !- Direction of Relative North {deg}
  ,                                       !- X Origin {m}
  ,                                       !- Y Origin {m}
  ,                                       !- Z Origin {m}
  ,                                       !- Building Story Name
  {62b1fc58-09db-47db-a085-f91c8ad4d7e6}, !- Thermal Zone Name
  ,                                       !- Part of Total Floor Area
  ,                                       !- Design Specification Outdoor Air Object Name
  ,                                       !- Building Unit Name
  346.03186535424;                        !- Volume {m3}

OS:Schedule:Ruleset,
  {82402c05-5b94-471d-b8ac-61c3a855882a}, !- Handle
  heating setpoint,                       !- Name
  {90bced14-2aa7-4abd-91fd-ec83e56e15d8}, !- Schedule Type Limits Name
  {7a728586-465b-41c6-8d45-fb9099f34661}; !- Default Day Schedule Name

OS:Schedule:Day,
  {7a728586-465b-41c6-8d45-fb9099f34661}, !- Handle
  heating setpoint default day,           !- Name
  {90bced14-2aa7-4abd-91fd-ec83e56e15d8}, !- Schedule Type Limits Name
  ,                                       !- Interpolate to Timestep
  24,                                     !- Hour 1
  0,                                      !- Minute 1
  0;                                      !- Value Until Time 1

OS:Schedule:Rule,
  {f81998f6-2324-4577-8f71-f4be3903fd95}, !- Handle
  heating setpoint allday rule,           !- Name
  {82402c05-5b94-471d-b8ac-61c3a855882a}, !- Schedule Ruleset Name
  0,                                      !- Rule Order
  {61b4a272-aae0-4110-a1a1-fe29434b1c73}, !- Day Schedule Name
  Yes,                                    !- Apply Sunday
  Yes,                                    !- Apply Monday
  Yes,                                    !- Apply Tuesday
  Yes,                                    !- Apply Wednesday
  Yes,                                    !- Apply Thursday
  Yes,                                    !- Apply Friday
  Yes,                                    !- Apply Saturday
  DateRange,                              !- Date Specification Type
  1,                                      !- Start Month
  1,                                      !- Start Day
  12,                                     !- End Month
  31;                                     !- End Day

OS:Schedule:Day,
  {61b4a272-aae0-4110-a1a1-fe29434b1c73}, !- Handle
  heating setpoint day,                   !- Name
  {90bced14-2aa7-4abd-91fd-ec83e56e15d8}, !- Schedule Type Limits Name
  ,                                       !- Interpolate to Timestep
  24,                                     !- Hour 1
  0,                                      !- Minute 1
  20;                                     !- Value Until Time 1

OS:Schedule:Ruleset,
  {528bebaa-f6ea-4894-bd3b-3429dc4b5c18}, !- Handle
  cooling setpoint,                       !- Name
  {90bced14-2aa7-4abd-91fd-ec83e56e15d8}, !- Schedule Type Limits Name
  {85becf63-8be0-420d-8aa1-a47cb762feb8}; !- Default Day Schedule Name

OS:Schedule:Day,
  {85becf63-8be0-420d-8aa1-a47cb762feb8}, !- Handle
  cooling setpoint default day,           !- Name
  {90bced14-2aa7-4abd-91fd-ec83e56e15d8}, !- Schedule Type Limits Name
  ,                                       !- Interpolate to Timestep
  24,                                     !- Hour 1
  0,                                      !- Minute 1
  0;                                      !- Value Until Time 1

OS:Schedule:Rule,
  {0179a6ff-a9d9-443a-86f5-2482966930b6}, !- Handle
  cooling setpoint allday rule,           !- Name
  {528bebaa-f6ea-4894-bd3b-3429dc4b5c18}, !- Schedule Ruleset Name
  0,                                      !- Rule Order
  {29789868-0b3b-4504-8d3f-8a17fffeb4a9}, !- Day Schedule Name
  Yes,                                    !- Apply Sunday
  Yes,                                    !- Apply Monday
  Yes,                                    !- Apply Tuesday
  Yes,                                    !- Apply Wednesday
  Yes,                                    !- Apply Thursday
  Yes,                                    !- Apply Friday
  Yes,                                    !- Apply Saturday
  DateRange,                              !- Date Specification Type
  1,                                      !- Start Month
  1,                                      !- Start Day
  12,                                     !- End Month
  31;                                     !- End Day

OS:Schedule:Day,
  {29789868-0b3b-4504-8d3f-8a17fffeb4a9}, !- Handle
  cooling setpoint day,                   !- Name
  {90bced14-2aa7-4abd-91fd-ec83e56e15d8}, !- Schedule Type Limits Name
  ,                                       !- Interpolate to Timestep
  24,                                     !- Hour 1
  0,                                      !- Minute 1
  25.5555555555556;                       !- Value Until Time 1

OS:ThermostatSetpoint:DualSetpoint,
  {0dfdace8-d874-407e-ab35-4aea89b8f9b2}, !- Handle
  conditioned space temperature setpoint, !- Name
  {82402c05-5b94-471d-b8ac-61c3a855882a}, !- Heating Setpoint Temperature Schedule Name
  {528bebaa-f6ea-4894-bd3b-3429dc4b5c18}, !- Cooling Setpoint Temperature Schedule Name
  0;                                      !- Temperature Difference Between Cutout And Setpoint {deltaC}

OS:ScheduleTypeLimits,
  {90bced14-2aa7-4abd-91fd-ec83e56e15d8}, !- Handle
  Temperature,                            !- Name
  ,                                       !- Lower Limit Value
  ,                                       !- Upper Limit Value
  Continuous,                             !- Numeric Type
  Temperature;                            !- Unit Type

OS:Surface,
  {ba7c3bd4-04ca-4129-9a7e-e36b9400cb38}, !- Handle
  Roof1,                                  !- Name
  RoofCeiling,                            !- Surface Type
  {e9d72548-feaf-4ecd-ac0c-4f5482d4da8a}, !- Construction Name
  {aa807636-a771-4122-bd4d-70bad9f6c7b1}, !- Space Name
  Outdoors,                               !- Outside Boundary Condition
  ,                                       !- Outside Boundary Condition Object
  SunExposed,                             !- Sun Exposure
  WindExposed,                            !- Wind Exposure
  ,                                       !- View Factor to Ground
  ,                                       !- Number of Vertices
  -5.95628646053898, 5.95628646053898, 2.4384, !- X,Y,Z Vertex 1 {m}
  -5.95628646053898, -5.95628646053898, 2.4384, !- X,Y,Z Vertex 2 {m}
  5.95628646053898, -5.95628646053898, 2.4384, !- X,Y,Z Vertex 3 {m}
  5.95628646053898, 5.95628646053898, 2.4384; !- X,Y,Z Vertex 4 {m}

OS:AdditionalProperties,
  {30c1af3c-0f53-4a03-85e1-5e5daef06a60}, !- Handle
  {ba7c3bd4-04ca-4129-9a7e-e36b9400cb38}, !- Object Name
  Length,                                 !- Feature Name 1
  Double,                                 !- Feature Data Type 1
  39.083244491725608,                     !- Feature Value 1
  Width,                                  !- Feature Name 2
  Double,                                 !- Feature Data Type 2
  39.083244491725608,                     !- Feature Value 2
  Azimuth,                                !- Feature Name 3
  Integer,                                !- Feature Data Type 3
  0,                                      !- Feature Value 3
  Tilt,                                   !- Feature Name 4
  Double,                                 !- Feature Data Type 4
  0,                                      !- Feature Value 4
  SurfaceType,                            !- Feature Name 5
  String,                                 !- Feature Data Type 5
  Roof;                                   !- Feature Value 5

OS:Material,
  {82920261-47aa-4246-b1ba-01e8a44fcba2}, !- Handle
  asphalt or fiberglass shingles,         !- Name
  Rough,                                  !- Roughness
  0.00635,                                !- Thickness {m}
  0.162714,                               !- Conductivity {W/m-K}
  1121.4,                                 !- Density {kg/m3}
  1465.45,                                !- Specific Heat {J/kg-K}
  0.9,                                    !- Thermal Absorptance
  0.85,                                   !- Solar Absorptance
  0.85;                                   !- Visible Absorptance

OS:Material,
  {9f87d7fb-2dcb-45a3-a417-08b478047e1b}, !- Handle
  roof stud and cavity,                   !- Name
  Rough,                                  !- Roughness
  0.0889,                                 !- Thickness {m}
  0.491900632004487,                      !- Conductivity {W/m-K}
  50.32683,                               !- Density {kg/m3}
  1063.80987585548,                       !- Specific Heat {J/kg-K}
  0.9,                                    !- Thermal Absorptance
  0.7,                                    !- Solar Absorptance
  0.7;                                    !- Visible Absorptance

OS:Material,
  {5c528f3d-5b2d-481c-8191-4a1f3da98c25}, !- Handle
  gypsum board,                           !- Name
  Rough,                                  !- Roughness
  0.00254,                                !- Thickness {m}
  0.1602906,                              !- Conductivity {W/m-K}
  801,                                    !- Density {kg/m3}
  837.4,                                  !- Specific Heat {J/kg-K}
  0.9,                                    !- Thermal Absorptance
  0.6,                                    !- Solar Absorptance
  0.6;                                    !- Visible Absorptance

OS:Construction,
  {e9d72548-feaf-4ecd-ac0c-4f5482d4da8a}, !- Handle
  Roof1 construction,                     !- Name
  ,                                       !- Surface Rendering Name
  {82920261-47aa-4246-b1ba-01e8a44fcba2}, !- Layer 1
  {9f87d7fb-2dcb-45a3-a417-08b478047e1b}, !- Layer 2
  {5c528f3d-5b2d-481c-8191-4a1f3da98c25}; !- Layer 3

OS:Surface,
  {6749ae7b-4bfb-4398-8e6f-88facf1ceb30}, !- Handle
  Wall1,                                  !- Name
  Wall,                                   !- Surface Type
  {a7ea253c-de26-4f46-81c6-09f16e310a0f}, !- Construction Name
  {aa807636-a771-4122-bd4d-70bad9f6c7b1}, !- Space Name
  Outdoors,                               !- Outside Boundary Condition
  ,                                       !- Outside Boundary Condition Object
  SunExposed,                             !- Sun Exposure
  WindExposed,                            !- Wind Exposure
  ,                                       !- View Factor to Ground
  ,                                       !- Number of Vertices
  -3.01645308575712, 5.40745691424288, 0, !- X,Y,Z Vertex 1 {m}
  -3.01645308575712, 5.40745691424288, 4.8768, !- X,Y,Z Vertex 2 {m}
  5.40745691424288, 5.40745691424288, 4.8768, !- X,Y,Z Vertex 3 {m}
  5.40745691424288, 5.40745691424288, 0;  !- X,Y,Z Vertex 4 {m}

OS:AdditionalProperties,
  {a7d3409f-a6c8-43c1-9399-dbcb3bf11f2b}, !- Handle
  {6749ae7b-4bfb-4398-8e6f-88facf1ceb30}, !- Object Name
  Length,                                 !- Feature Name 1
  Double,                                 !- Feature Data Type 1
  27.637499999999999,                     !- Feature Value 1
  Azimuth,                                !- Feature Name 2
  Integer,                                !- Feature Data Type 2
  0,                                      !- Feature Value 2
  Tilt,                                   !- Feature Name 3
  Double,                                 !- Feature Data Type 3
  90,                                     !- Feature Value 3
  SurfaceType,                            !- Feature Name 4
  String,                                 !- Feature Data Type 4
  Wall;                                   !- Feature Value 4

OS:Material,
  {35f6fecb-5fd7-4217-bfa7-348e261a5396}, !- Handle
  wood siding,                            !- Name
  Rough,                                  !- Roughness
  0.0254,                                 !- Thickness {m}
  0.1024175,                              !- Conductivity {W/m-K}
  544.68,                                 !- Density {kg/m3}
  1172.36,                                !- Specific Heat {J/kg-K}
  0.9,                                    !- Thermal Absorptance
  0.7,                                    !- Solar Absorptance
  0.7;                                    !- Visible Absorptance

OS:Material,
  {bf2ef28b-15e9-4ed5-9b0a-9a1c33736c79}, !- Handle
  osb sheathing 0.5 in.,                  !- Name
  Rough,                                  !- Roughness
  0.0127,                                 !- Thickness {m}
  0.1154577,                              !- Conductivity {W/m-K}
  512.64,                                 !- Density {kg/m3}
  1214.23,                                !- Specific Heat {J/kg-K}
  0.9,                                    !- Thermal Absorptance
  0.7,                                    !- Solar Absorptance
  0.7;                                    !- Visible Absorptance

OS:Material,
  {9c0078d1-7cc1-498c-82ca-22c2dea799d7}, !- Handle
  wall stud and cavity,                   !- Name
  Rough,                                  !- Roughness
  0.1397,                                 !- Thickness {m}
  0.0929021674204099,                     !- Conductivity {W/m-K}
  139.0536,                               !- Density {kg/m3}
  1170.23755760369,                       !- Specific Heat {J/kg-K}
  0.9,                                    !- Thermal Absorptance
  0.7,                                    !- Solar Absorptance
  0.7;                                    !- Visible Absorptance

OS:Material,
  {a9164dff-1545-4b47-b6f7-c7c87f541a31}, !- Handle
  gypsum board 1,                         !- Name
  Rough,                                  !- Roughness
  0.0127,                                 !- Thickness {m}
  0.1602906,                              !- Conductivity {W/m-K}
  801,                                    !- Density {kg/m3}
  837.4,                                  !- Specific Heat {J/kg-K}
  0.9,                                    !- Thermal Absorptance
  0.6,                                    !- Solar Absorptance
  0.6;                                    !- Visible Absorptance

OS:Construction,
  {a7ea253c-de26-4f46-81c6-09f16e310a0f}, !- Handle
  Wall1 construction,                     !- Name
  ,                                       !- Surface Rendering Name
  {35f6fecb-5fd7-4217-bfa7-348e261a5396}, !- Layer 1
  {bf2ef28b-15e9-4ed5-9b0a-9a1c33736c79}, !- Layer 2
  {9c0078d1-7cc1-498c-82ca-22c2dea799d7}, !- Layer 3
  {a9164dff-1545-4b47-b6f7-c7c87f541a31}; !- Layer 4

OS:Surface,
  {6e120932-c7fe-4a2c-a289-8de0e55f64ed}, !- Handle
  Wall2,                                  !- Name
  Wall,                                   !- Surface Type
  {89e0d02d-a0b8-49f2-b0ae-520e17199b3d}, !- Construction Name
  {aa807636-a771-4122-bd4d-70bad9f6c7b1}, !- Space Name
  Outdoors,                               !- Outside Boundary Condition
  ,                                       !- Outside Boundary Condition Object
  SunExposed,                             !- Sun Exposure
  WindExposed,                            !- Wind Exposure
  ,                                       !- View Factor to Ground
  ,                                       !- Number of Vertices
  5.40745691424288, -1.19550191424288, 0, !- X,Y,Z Vertex 1 {m}
  5.40745691424288, -1.19550191424288, 4.8768, !- X,Y,Z Vertex 2 {m}
  5.40745691424288, -5.40745691424288, 4.8768, !- X,Y,Z Vertex 3 {m}
  5.40745691424288, -5.40745691424288, 0; !- X,Y,Z Vertex 4 {m}

OS:AdditionalProperties,
  {4a16f065-d028-439a-9626-52990ba89dad}, !- Handle
  {6e120932-c7fe-4a2c-a289-8de0e55f64ed}, !- Object Name
  Length,                                 !- Feature Name 1
  Double,                                 !- Feature Data Type 1
  13.81875,                               !- Feature Value 1
  Azimuth,                                !- Feature Name 2