
OS:Version,
  {c1791e29-59ff-41b9-bec4-72a4a9667f6d}, !- Handle
  3.9.0;                                  !- Version Identifier

OS:SimulationControl,
  {b20b0f6d-b116-4e27-ba72-485e10e6b51d}, !- Handle
  ,                                       !- Do Zone Sizing Calculation
  ,                                       !- Do System Sizing Calculation
  ,                                       !- Do Plant Sizing Calculation
  No;                                     !- Run Simulation for Sizing Periods

OS:Timestep,
  {ec320c65-6500-4ca8-83a5-98d0d5bdcbaf}, !- Handle
  1;                                      !- Number of Timesteps per Hour

OS:ShadowCalculation,
  {31af4a63-e9df-477a-91f2-faeca37182b0}, !- Handle
  PolygonClipping,                        !- Shading Calculation Method
  ,                                       !- Shading Calculation Update Frequency Method
  20,                                     !- Shading Calculation Update Frequency
  200,                                    !- Maximum Figures in Shadow Overlap Calculations
  ,                                       !- Polygon Clipping Algorithm
  512,                                    !- Pixel Counting Resolution
  ,                                       !- Sky Diffuse Modeling Algorithm
  No,                                     !- Output External Shading Calculation Results
  No,                                     !- Disable Self-Shading Within Shading Zone Groups
  No;                                     !- Disable Self-Shading From Shading Zone Groups to Other Zones

OS:SurfaceConvectionAlgorithm:Outside,
  {09f4df7c-cc5d-4220-8438-9f91fad6a38c}, !- Handle
  DOE-2;                                  !- Algorithm

OS:SurfaceConvectionAlgorithm:Inside,
  {4d9b674c-d877-4ee9-8414-2e5faf2acd30}, !- Handle
  TARP;                                   !- Algorithm

OS:ZoneCapacitanceMultiplier:ResearchSpecial,
  {885dbd2b-4219-4615-b9b6-c63771b68137}, !- Handle
  7,                                      !- Temperature Capacity Multiplier
  15,                                     !- Humidity Capacity Multiplier
  ;                                       !- Carbon Dioxide Capacity Multiplier

OS:ConvergenceLimits,
  {ce2ad6c8-3b9a-433c-80c4-c36a67599fff}, !- Handle
  0;                                      !- Minimum System Timestep {minutes}

OS:RunPeriod,
  {7d75540c-ea66-4a76-bee7-f284b0596676}, !- Handle
  Run Period 1,                           !- Name
  1,                                      !- Begin Month
  1,                                      !- Begin Day of Month
  12,                                     !- End Month
  31,                                     !- End Day of Month
  ,                                       !- Use Weather File Holidays and Special Days
  ,                                       !- Use Weather File Daylight Saving Period
  ,                                       !- Apply Weekend Holiday Rule
  ,                                       !- Use Weather File Rain Indicators
  ,                                       !- Use Weather File Snow Indicators
  ;                                       !- Number of Times Runperiod to be Repeated

OS:PerformancePrecisionTradeoffs,
  {f178d79c-9d6a-4a26-8515-86185bc42b72}, !- Handle
  ,                                       !- Use Coil Direct Solutions
  CarrollMRT;                             !- Zone Radiant Exchange Algorithm

OS:WeatherFile,
  {a3a5bb1d-5b4e-4c97-a6d6-64dae2e45951}, !- Handle
  Buffalo Niagara Intl Ap,                !- City
  NY,                                     !- State Province Region
  USA,                                    !- Country
  TMY3,                                   !- Data Source
  725280,                                 !- WMO Number
  42.93,                                  !- Latitude {deg}
  -78.73,                                 !- Longitude {deg}
  -5,                                     !- Time Zone {hr}
  215,                                    !- Elevation {m}
  /Users/nmoore/github/urbanopt-example-geojson-project/example_project/weather/USA_NY_Buffalo-Greater.Buffalo.Intl.AP.725280_TMY3.epw, !- Url
  6B50E0FF,                               !- Checksum
  ,                                       !- Start Date Actual Year
  Sunday;                                 !- Start Day of Week

OS:YearDescription,
  {f6c9e264-f7ca-47db-8faf-370e089c5e75}, !- Handle
  2007,                                   !- Calendar Year
  ,                                       !- Day of Week for Start Day
  ;                                       !- Is Leap Year

OS:Site,
  {2c1c390b-7150-4583-b74c-fc98a452f73b}, !- Handle
  Buffalo Niagara Intl Ap_NY,             !- Name
  42.93,                                  !- Latitude {deg}
  -78.73,                                 !- Longitude {deg}
  -5,                                     !- Time Zone {hr}
  215,                                    !- Elevation {m}
  Suburbs,                                !- Terrain
  Yes;                                    !- Keep Site Location Information

OS:RunPeriodControl:DaylightSavingTime,
  {494b2a79-3eba-4acf-9ba1-ecef0d1e937f}, !- Handle
  Mar 12,                                 !- Start Date
  Nov 5;                                  !- End Date

OS:Site:GroundTemperature:Shallow,
  {6a87820c-640b-47de-bda8-143715f5f981}, !- Handle
  4.30207395723828,                       !- January Surface Ground Temperature {C}
  2.29327249652502,                       !- February Surface Ground Temperature {C}
  2.13240047156047,                       !- March Surface Ground Temperature {C}
  3.08567940719286,                       !- April Surface Ground Temperature {C}
  6.91256312497526,                       !- May Surface Ground Temperature {C}
  10.7216195949507,                       !- June Surface Ground Temperature {C}
  14.0238679822574,                       !- July Surface Ground Temperature {C}
  16.1157611184724,                       !- August Surface Ground Temperature {C}
  16.2934789303462,                       !- September Surface Ground Temperature {C}
  14.5920754632847,                       !- October Surface Ground Temperature {C}
  11.374036348653,                        !- November Surface Ground Temperature {C}
  7.68182621661674;                       !- December Surface Ground Temperature {C}

OS:ThermalZone,
  {f61667fe-f057-49f3-8016-2ca5758ebef5}, !- Handle
  conditioned space,                      !- Name
  1,                                      !- Multiplier
  ,                                       !- Ceiling Height {m}
  692.06373070848,                        !- Volume {m3}
  ,                                       !- Floor Area {m2}
  ,                                       !- Zone Inside Convection Algorithm
  ,                                       !- Zone Outside Convection Algorithm
  ,                                       !- Zone Conditioning Equipment List Name
  {b2718c32-ea06-4a1c-8ddb-b9a0a01a0eca}, !- Zone Air Inlet Port List
  {38a64235-dff5-44e5-bd89-c52b345ef676}, !- Zone Air Exhaust Port List
  {a3952f0f-204d-4355-8c28-457b338ad967}, !- Zone Air Node Name
  {4eb59b2d-9825-4d8f-815a-5434b0dbdcec}, !- Zone Return Air Port List
  ,                                       !- Primary Daylighting Control Name
  ,                                       !- Fraction of Zone Controlled by Primary Daylighting Control
  ,                                       !- Secondary Daylighting Control Name
  ,                                       !- Fraction of Zone Controlled by Secondary Daylighting Control
  ,                                       !- Illuminance Map Name
  ,                                       !- Group Rendering Name
  {d960bef8-02cf-4c1f-80d1-fb45f467a57f}, !- Thermostat Name
  No;                                     !- Use Ideal Air Loads

OS:Node,
  {401879e7-445f-4685-bb62-84bc8e74e215}, !- Handle
  Node 1,                                 !- Name
  {a3952f0f-204d-4355-8c28-457b338ad967}, !- Inlet Port
  ;                                       !- Outlet Port

OS:Connection,
  {a3952f0f-204d-4355-8c28-457b338ad967}, !- Handle
  {f61667fe-f057-49f3-8016-2ca5758ebef5}, !- Source Object
  11,                                     !- Outlet Port
  {401879e7-445f-4685-bb62-84bc8e74e215}, !- Target Object
  2;                                      !- Inlet Port

OS:PortList,
  {b2718c32-ea06-4a1c-8ddb-b9a0a01a0eca}, !- Handle
  {f61667fe-f057-49f3-8016-2ca5758ebef5}, !- HVAC Component
  {81cfa0c7-3a30-40c9-824e-0b8b0d996e42}; !- Port 1

OS:PortList,
  {38a64235-dff5-44e5-bd89-c52b345ef676}, !- Handle
  {f61667fe-f057-49f3-8016-2ca5758ebef5}; !- HVAC Component

OS:PortList,
  {4eb59b2d-9825-4d8f-815a-5434b0dbdcec}, !- Handle
  {f61667fe-f057-49f3-8016-2ca5758ebef5}, !- HVAC Component
  {025a098e-e451-454f-a72f-f59838794db1}; !- Port 1

OS:Sizing:Zone,
  {5abd7fba-f2dc-48a8-a922-c066f8924043}, !- Handle
  {f61667fe-f057-49f3-8016-2ca5758ebef5}, !- Zone or ZoneList Name
  SupplyAirTemperature,                   !- Zone Cooling Design Supply Air Temperature Input Method
  14,                                     !- Zone Cooling Design Supply Air Temperature {C}
  11.11,                                  !- Zone Cooling Design Supply Air Temperature Difference {deltaC}
  SupplyAirTemperature,                   !- Zone Heating Design Supply Air Temperature Input Method
  40,                                     !- Zone Heating Design Supply Air Temperature {C}
  11.11,                                  !- Zone Heating Design Supply Air Temperature Difference {deltaC}
  0.0085,                                 !- Zone Cooling Design Supply Air Humidity Ratio {kg-H2O/kg-air}
  0.008,                                  !- Zone Heating Design Supply Air Humidity Ratio {kg-H2O/kg-air}
  ,                                       !- Zone Heating Sizing Factor
  ,                                       !- Zone Cooling Sizing Factor
  DesignDay,                              !- Cooling Design Air Flow Method
  ,                                       !- Cooling Design Air Flow Rate {m3/s}
  ,                                       !- Cooling Minimum Air Flow per Zone Floor Area {m3/s-m2}
  ,                                       !- Cooling Minimum Air Flow {m3/s}
  ,                                       !- Cooling Minimum Air Flow Fraction
  DesignDay,                              !- Heating Design Air Flow Method
  ,                                       !- Heating Design Air Flow Rate {m3/s}
  ,                                       !- Heating Maximum Air Flow per Zone Floor Area {m3/s-m2}
  ,                                       !- Heating Maximum Air Flow {m3/s}
  ,                                       !- Heating Maximum Air Flow Fraction
  No,                                     !- Account for Dedicated Outdoor Air System
  NeutralSupplyAir,                       !- Dedicated Outdoor Air System Control Strategy
  autosize,                               !- Dedicated Outdoor Air Low Setpoint Temperature for Design {C}
  autosize,                               !- Dedicated Outdoor Air High Setpoint Temperature for Design {C}
  Sensible Load Only No Latent Load,      !- Zone Load Sizing Method
  HumidityRatioDifference,                !- Zone Latent Cooling Design Supply Air Humidity Ratio Input Method
  ,                                       !- Zone Dehumidification Design Supply Air Humidity Ratio {kgWater/kgDryAir}
  0.005,                                  !- Zone Cooling Design Supply Air Humidity Ratio Difference {kgWater/kgDryAir}
  HumidityRatioDifference,                !- Zone Latent Heating Design Supply Air Humidity Ratio Input Method
  ,                                       !- Zone Humidification Design Supply Air Humidity Ratio {kgWater/kgDryAir}
  0.005,                                  !- Zone Humidification Design Supply Air Humidity Ratio Difference {kgWater/kgDryAir}
  ,                                       !- Zone Humidistat Dehumidification Set Point Schedule Name
  ,                                       !- Zone Humidistat Humidification Set Point Schedule Name
  ,                                       !- Design Zone Air Distribution Effectiveness in Cooling Mode
  ,                                       !- Design Zone Air Distribution Effectiveness in Heating Mode
  ,                                       !- Design Zone Secondary Recirculation Fraction {dimensionless}
  ,                                       !- Design Minimum Zone Ventilation Efficiency {dimensionless}
  Coincident;                             !- Sizing Option

OS:ZoneHVAC:EquipmentList,
  {5d0f9e42-46f7-4044-a2f8-241b9ac4adfd}, !- Handle
  Zone HVAC Equipment List 1,             !- Name
  {f61667fe-f057-49f3-8016-2ca5758ebef5}, !- Thermal Zone
  ,                                       !- Load Distribution Scheme
  {02fbb3fc-4bc7-44cc-8c03-291a371a4354}, !- Zone Equipment 1
  1,                                      !- Zone Equipment Cooling Sequence 1
  1,                                      !- Zone Equipment Heating or No-Load Sequence 1
  {020490d8-9587-4846-a783-783ea269ed81}, !- Zone Equipment Sequential Cooling Fraction Schedule Name 1
  {ea4d81c3-d692-4e91-becf-d91700da598d}, !- Zone Equipment Sequential Heating Fraction Schedule Name 1
  {20c7d172-57e8-45f7-96c0-ae6dd1f622f8}, !- Zone Equipment 2
  2,                                      !- Zone Equipment Cooling Sequence 2
  2,                                      !- Zone Equipment Heating or No-Load Sequence 2
  {89b0ceab-b63d-4579-90b4-adef3ef4394f}, !- Zone Equipment Sequential Cooling Fraction Schedule Name 2
  {a3830eb2-1227-4aee-aaf0-e344c31d7863}; !- Zone Equipment Sequential Heating Fraction Schedule Name 2

OS:AdditionalProperties,
  {2e881380-2532-4181-b5d4-cdd3147685ba}, !- Handle
  {f61667fe-f057-49f3-8016-2ca5758ebef5}, !- Object Name
  ObjectType,                             !- Feature Name 1
  String,                                 !- Feature Data Type 1
  conditioned space;                      !- Feature Value 1

OS:Space,
  {b43ef828-386f-44de-a984-037d5598f07a}, !- Handle
  conditioned space 1,                    !- Name
  ,                                       !- Space Type Name
  ,                                       !- Default Construction Set Name
  ,                                       !- Default Schedule Set Name
  ,                                       !- Direction of Relative North {deg}
  ,                                       !- X Origin {m}
  ,                                       !- Y Origin {m}
  ,                                       !- Z Origin {m}
  ,                                       !- Building Story Name
  {f61667fe-f057-49f3-8016-2ca5758ebef5}, !- Thermal Zone Name
  ,                                       !- Part of Total Floor Area
  ,                                       !- Design Specification Outdoor Air Object Name
  ,                                       !- Building Unit Name
  692.06373070848;                        !- Volume {m3}

OS:Schedule:Ruleset,
  {825ceb9e-1185-4039-b5e9-2a9b87fc1196}, !- Handle
  heating setpoint,                       !- Name
  {d02d3d6c-0fc1-4ea9-ba23-daedb63af5c8}, !- Schedule Type Limits Name
  {706514f7-d753-4ad7-874e-dc817c2b8b0d}; !- Default Day Schedule Name

OS:Schedule:Day,
  {706514f7-d753-4ad7-874e-dc817c2b8b0d}, !- Handle
  heating setpoint default day,           !- Name
  {d02d3d6c-0fc1-4ea9-ba23-daedb63af5c8}, !- Schedule Type Limits Name
  ,                                       !- Interpolate to Timestep
  24,                                     !- Hour 1
  0,                                      !- Minute 1
  0;                                      !- Value Until Time 1

OS:Schedule:Rule,
  {dc10fcc2-a6a0-4b65-805a-2e917f48596d}, !- Handle
  heating setpoint allday rule,           !- Name
  {825ceb9e-1185-4039-b5e9-2a9b87fc1196}, !- Schedule Ruleset Name
  0,                                      !- Rule Order
  {1129e89b-4f77-4590-b18d-10e5163bddb5}, !- Day Schedule Name
  Yes,                                    !- Apply Sunday
  Yes,                                    !- Apply Monday
  Yes,                                    !- Apply Tuesday
  Yes,                                    !- Apply Wednesday
  Yes,                                    !- Apply Thursday
  Yes,                                    !- Apply Friday
  Yes,                                    !- Apply Saturday
  DateRange,                              !- Date Specification Type
  1,                                      !- Start Month
  1,                                      !- Start Day
  12,                                     !- End Month
  31;                                     !- End Day

OS:Schedule:Day,
  {1129e89b-4f77-4590-b18d-10e5163bddb5}, !- Handle
  heating setpoint day,                   !- Name
  {d02d3d6c-0fc1-4ea9-ba23-daedb63af5c8}, !- Schedule Type Limits Name
  ,                                       !- Interpolate to Timestep
  24,                                     !- Hour 1
  0,                                      !- Minute 1
  20;                                     !- Value Until Time 1

OS:Schedule:Ruleset,
  {276fa50a-05e2-4a3e-ac59-3009d8211206}, !- Handle
  cooling setpoint,                       !- Name
  {d02d3d6c-0fc1-4ea9-ba23-daedb63af5c8}, !- Schedule Type Limits Name
  {574e204b-79e8-4632-8a99-9f1448de025d}; !- Default Day Schedule Name

OS:Schedule:Day,
  {574e204b-79e8-4632-8a99-9f1448de025d}, !- Handle
  cooling setpoint default day,           !- Name
  {d02d3d6c-0fc1-4ea9-ba23-daedb63af5c8}, !- Schedule Type Limits Name
  ,                                       !- Interpolate to Timestep
  24,                                     !- Hour 1
  0,                                      !- Minute 1
  0;                                      !- Value Until Time 1

OS:Schedule:Rule,
  {f460ddc8-bd36-4f7c-8dea-43dde92801f7}, !- Handle
  cooling setpoint allday rule,           !- Name
  {276fa50a-05e2-4a3e-ac59-3009d8211206}, !- Schedule Ruleset Name
  0,                                      !- Rule Order
  {93b57876-3ff7-47df-b808-f279b3cea6b8}, !- Day Schedule Name
  Yes,                                    !- Apply Sunday
  Yes,                                    !- Apply Monday
  Yes,                                    !- Apply Tuesday
  Yes,                                    !- Apply Wednesday
  Yes,                                    !- Apply Thursday
  Yes,                                    !- Apply Friday
  Yes,                                    !- Apply Saturday
  DateRange,                              !- Date Specification Type
  1,                                      !- Start Month
  1,                                      !- Start Day
  12,                                     !- End Month
  31;                                     !- End Day

OS:Schedule:Day,
  {93b57876-3ff7-47df-b808-f279b3cea6b8}, !- Handle
  cooling setpoint day,                   !- Name
  {d02d3d6c-0fc1-4ea9-ba23-daedb63af5c8}, !- Schedule Type Limits Name
  ,                                       !- Interpolate to Timestep
  24,                                     !- Hour 1
  0,                                      !- Minute 1
  25.5555555555556;                       !- Value Until Time 1

OS:ThermostatSetpoint:DualSetpoint,
  {d960bef8-02cf-4c1f-80d1-fb45f467a57f}, !- Handle
  conditioned space temperature setpoint, !- Name
  {825ceb9e-1185-4039-b5e9-2a9b87fc1196}, !- Heating Setpoint Temperature Schedule Name
  {276fa50a-05e2-4a3e-ac59-3009d8211206}, !- Cooling Setpoint Temperature Schedule Name
  0;                                      !- Temperature Difference Between Cutout And Setpoint {deltaC}

OS:ScheduleTypeLimits,
  {d02d3d6c-0fc1-4ea9-ba23-daedb63af5c8}, !- Handle
  Temperature,                            !- Name
  ,                                       !- Lower Limit Value
  ,                                       !- Upper Limit Value
  Continuous,                             !- Numeric Type
  Temperature;                            !- Unit Type

OS:Surface,
  {7a7c6235-4e6d-433e-8eb7-cde7ed49c9e1}, !- Handle
  Roof1,                                  !- Name
  RoofCeiling,                            !- Surface Type
  {f5513e97-4a76-4bea-9936-1e9baa0d1280}, !- Construction Name
  {50fa42be-9c32-4694-9550-8a2cbbd63e9a}, !- Space Name
  Outdoors,                               !- Outside Boundary Condition
  ,                                       !- Outside Boundary Condition Object
  SunExposed,                             !- Sun Exposure
  WindExposed,                            !- Wind Exposure
  ,                                       !- View Factor to Ground
  ,                                       !- Number of Vertices
  -26.9347048849634, 58.0557891618865, 2.4384, !- X,Y,Z Vertex 1 {m}
  -26.9347048849634, 46.7895631136661, 8.0715130241102, !- X,Y,Z Vertex 2 {m}
  -14.3386812381136, 46.7895631136661, 8.0715130241102, !- X,Y,Z Vertex 3 {m}
  -14.3386812381136, 58.0557891618865, 2.4384; !- X,Y,Z Vertex 4 {m}

OS:AdditionalProperties,
  {d59d9098-4f8d-4558-8b1a-e84fd34b1166}, !- Handle
  {7a7c6235-4e6d-433e-8eb7-cde7ed49c9e1}, !- Object Name
  Length,                                 !- Feature Name 1
  Double,                                 !- Feature Data Type 1
  41.325536899113608,                     !- Feature Value 1
  Width,                                  !- Feature Name 2
  Double,                                 !- Feature Data Type 2
  41.325536899113601,                     !- Feature Value 2
  Azimuth,                                !- Feature Name 3
  Integer,                                !- Feature Data Type 3
  0,                                      !- Feature Value 3
  Tilt,                                   !- Feature Name 4
  Double,                                 !- Feature Data Type 4
  0.5,                                    !- Feature Value 4
  SurfaceType,                            !- Feature Name 5
  String,                                 !- Feature Data Type 5
  Roof;                                   !- Feature Value 5

OS:ThermalZone,
  {e566bb5b-d510-4032-96de-3d3ca29d51dc}, !- Handle
  attic - vented,                         !- Name
  1,                                      !- Multiplier
  ,                                       !- Ceiling Height {m}
  356.389957095237,                       !- Volume {m3}
  ,                                       !- Floor Area {m2}
  ,                                       !- Zone Inside Convection Algorithm
  ,                                       !- Zone Outside Convection Algorithm
  ,                                       !- Zone Conditioning Equipment List Name
  {a7865db7-f903-42ca-a907-33e5dbbcf8f1}, !- Zone Air Inlet Port List
  {1be22cba-934c-4647-8c02-915c45d6bf6d}, !- Zone Air Exhaust Port List
  {110c6c31-baab-4aaf-801e-81a2734443e5}, !- Zone Air Node Name
  {4b4ad007-14f9-4363-86dd-b05a24760159}, !- Zone Return Air Port List
  ,                                       !- Primary Daylighting Control Name
  ,                                       !- Fraction of Zone Controlled by Primary Daylighting Control
  ,                                       !- Secondary Daylighting Control Name
  ,                                       !- Fraction of Zone Controlled by Secondary Daylighting Control
  ,                                       !- Illuminance Map Name
  ,                                       !- Group Rendering Name
  ,                                       !- Thermostat Name
  No;                                     !- Use Ideal Air Loads

OS:Node,
  {adbde6f1-a8c6-445f-9a9c-6fa38f90bbaf}, !- Handle
  Node 2,                                 !- Name
  {110c6c31-baab-4aaf-801e-81a2734443e5}, !- Inlet Port
  ;                                       !- Outlet Port

OS:Connection,
  {110c6c31-baab-4aaf-801e-81a2734443e5}, !- Handle
  {e566bb5b-d510-4032-96de-3d3ca29d51dc}, !- Source Object
  11,                                     !- Outlet Port
  {adbde6f1-a8c6-445f-9a9c-6fa38f90bbaf}, !- Target Object
  2;                                      !- Inlet Port

OS:PortList,
  {a7865db7-f903-42ca-a907-33e5dbbcf8f1}, !- Handle
  {e566bb5b-d510-4032-96de-3d3ca29d51dc}; !- HVAC Component

OS:PortList,
  {1be22cba-934c-4647-8c02-915c45d6bf6d}, !- Handle
  {e566bb5b-d510-4032-96de-3d3ca29d51dc}; !- HVAC Component

OS:PortList,
  {4b4ad007-14f9-4363-86dd-b05a24760159}, !- Handle
  {e566bb5b-d510-4032-96de-3d3ca29d51dc}; !- HVAC Component

OS:Sizing:Zone,
  {04ac2946-68ca-4e74-8551-5621f28ce20f}, !- Handle
  {e566bb5b-d510-4032-96de-3d3ca29d51dc}, !- Zone or ZoneList Name
  SupplyAirTemperature,                   !- Zone Cooling Design Supply Air Temperature Input Method
  14,                                     !- Zone Cooling Design Supply Air Temperature {C}
  11.11,                                  !- Zone Cooling Design Supply Air Temperature Difference {deltaC}
  SupplyAirTemperature,                   !- Zone Heating Design Supply Air Temperature Input Method
  40,                                     !- Zone Heating Design Supply Air Temperature {C}
  11.11,                                  !- Zone Heating Design Supply Air Temperature Difference {deltaC}
  0.0085,                                 !- Zone Cooling Design Supply Air Humidity Ratio {kg-H2O/kg-air}
  0.008,                                  !- Zone Heating Design Supply Air Humidity Ratio {kg-H2O/kg-air}
  ,                                       !- Zone Heating Sizing Factor
  ,                                       !- Zone Cooling Sizing Factor
  DesignDay,                              !- Cooling Design Air Flow Method
  ,                                       !- Cooling Design Air Flow Rate {m3/s}
  ,                                       !- Cooling Minimum Air Flow per Zone Floor Area {m3/s-m2}
  ,                                       !- Cooling Minimum Air Flow {m3/s}
  ,                                       !- Cooling Minimum Air Flow Fraction
  DesignDay,                              !- Heating Design Air Flow Method
  ,                                       !- Heating Design Air Flow Rate {m3/s}
  ,                                       !- Heating Maximum Air Flow per Zone Floor Area {m3/s-m2}
  ,                                       !- Heating Maximum Air Flow {m3/s}
  ,                                       !- Heating Maximum Air Flow Fraction
  No,                                     !- Account for Dedicated Outdoor Air System
  NeutralSupplyAir,                       !- Dedicated Outdoor Air System Control Strategy
  autosize,                               !- Dedicated Outdoor Air Low Setpoint Temperature for Design {C}
  autosize,                               !- Dedicated Outdoor Air High Setpoint Temperature for Design {C}
  Sensible Load Only No Latent Load,      !- Zone Load Sizing Method
  HumidityRatioDifference,                !- Zone Latent Cooling Design Supply Air Humidity Ratio Input Method
  ,                                       !- Zone Dehumidification Design Supply Air Humidity Ratio {kgWater/kgDryAir}
  0.005,                                  !- Zone Cooling Design Supply Air Humidity Ratio Difference {kgWater/kgDryAir}
  HumidityRatioDifference,                !- Zone Latent Heating Design Supply Air Humidity Ratio Input Method
  ,                                       !- Zone Humidification Design Supply Air Humidity Ratio {kgWater/kgDryAir}
  0.005,                                  !- Zone Humidification Design Supply Air Humidity Ratio Difference {kgWater/kgDryAir}
  ,                                       !- Zone Humidistat Dehumidification Set Point Schedule Name
  ,                                       !- Zone Humidistat Humidification Set Point Schedule Name
  ,                                       !- Design Zone Air Distribution Effectiveness in Cooling Mode
  ,                                       !- Design Zone Air Distribution Effectiveness in Heating Mode
  ,                                       !- Design Zone Secondary Recirculation Fraction {dimensionless}
  ,                                       !- Design Minimum Zone Ventilation Efficiency {dimensionless}
  Coincident;                             !- Sizing Option

OS:ZoneHVAC:EquipmentList,
  {89894c2c-6ff5-4961-a399-d76eaf730aa8}, !- Handle
  Zone HVAC Equipment List 2,             !- Name
  {e566bb5b-d510-4032-96de-3d3ca29d51dc}; !- Thermal Zone

OS:AdditionalProperties,
  {f2ebbaae-aa00-4c2f-a37d-63f152fdaf2e}, !- Handle
  {e566bb5b-d510-4032-96de-3d3ca29d51dc}, !- Object Name
  ObjectType,                             !- Feature Name 1
  String,                                 !- Feature Data Type 1
  attic - vented;                         !- Feature Value 1

OS:Space,
  {50fa42be-9c32-4694-9550-8a2cbbd63e9a}, !- Handle
  attic - vented 1,                       !- Name
  ,                                       !- Space Type Name
  ,                                       !- Default Construction Set Name
  ,                                       !- Default Schedule Set Name
  ,                                       !- Direction of Relative North {deg}
  ,                                       !- X Origin {m}
  ,                                       !- Y Origin {m}
  ,                                       !- Z Origin {m}
  ,                                       !- Building Story Name
  {e566bb5b-d510-4032-96de-3d3ca29d51dc}, !- Thermal Zone Name
  ,                                       !- Part of Total Floor Area
  ,                                       !- Design Specification Outdoor Air Object Name
  ,                                       !- Building Unit Name
  356.389957095237;                       !- Volume {m3}

OS:Material,
  {69ac6758-6611-49ce-8375-d4883cf3f70e}, !- Handle
  asphalt or fiberglass shingles,         !- Name