
OS:Version,
  {2b86a34d-5d43-4ca8-b8b3-26744434a951}, !- Handle
  3.10.0;                                 !- Version Identifier

OS:SimulationControl,
  {47d96e77-2191-4a1a-aa30-0f045a9e49fb}, !- Handle
  ,                                       !- Do Zone Sizing Calculation
  ,                                       !- Do System Sizing Calculation
  ,                                       !- Do Plant Sizing Calculation
  No;                                     !- Run Simulation for Sizing Periods

OS:Timestep,
  {d6de71f6-ef79-4d7b-8aad-d95af9a420d1}, !- Handle
  1;                                      !- Number of Timesteps per Hour

OS:ShadowCalculation,
  {d3fa53ad-3f9b-4231-aa5b-3c9916d37a53}, !- Handle
  PolygonClipping,                        !- Shading Calculation Method
  ,                                       !- Shading Calculation Update Frequency Method
  20,                                     !- Shading Calculation Update Frequency
  200,                                    !- Maximum Figures in Shadow Overlap Calculations
  ,                                       !- Polygon Clipping Algorithm
  512,                                    !- Pixel Counting Resolution
  ,                                       !- Sky Diffuse Modeling Algorithm
  No,                                     !- Output External Shading Calculation Results
  No,                                     !- Disable Self-Shading Within Shading Zone Groups
  No;                                     !- Disable Self-Shading From Shading Zone Groups to Other Zones

OS:SurfaceConvectionAlgorithm:Outside,
  {2496af78-699f-4d40-902a-e732742c0df0}, !- Handle
  DOE-2;                                  !- Algorithm

OS:SurfaceConvectionAlgorithm:Inside,
  {6f64f782-7d34-4587-a015-dd11847ff8de}, !- Handle
  TARP;                                   !- Algorithm

OS:ZoneCapacitanceMultiplier:ResearchSpecial,
  {17b948ed-db6d-4622-a016-daab1b3c777b}, !- Handle
  7,                                      !- Temperature Capacity Multiplier
  15,                                     !- Humidity Capacity Multiplier
  ;                                       !- Carbon Dioxide Capacity Multiplier

OS:ConvergenceLimits,
  {bf9f5257-00b0-44c1-8ca6-a6cc08600bfa}, !- Handle
  0;                                      !- Minimum System Timestep {minutes}

OS:RunPeriod,
  {86c62dd2-9c9e-4bea-97dd-45e7aa086a10}, !- Handle
  Run Period 1,                           !- Name
  1,                                      !- Begin Month
  1,                                      !- Begin Day of Month
  12,                                     !- End Month
  31,                                     !- End Day of Month
  ,                                       !- Use Weather File Holidays and Special Days
  ,                                       !- Use Weather File Daylight Saving Period
  ,                                       !- Apply Weekend Holiday Rule
  ,                                       !- Use Weather File Rain Indicators
  ,                                       !- Use Weather File Snow Indicators
  ;                                       !- Number of Times Runperiod to be Repeated

OS:PerformancePrecisionTradeoffs,
  {bf2b9585-bd0a-4536-9d17-393092e55222}, !- Handle
  ,                                       !- Use Coil Direct Solutions
  CarrollMRT;                             !- Zone Radiant Exchange Algorithm

OS:WeatherFile,
  {e7d526d2-a5b0-4202-98d2-a9f249abeccd}, !- Handle
  Buffalo Niagara Intl Ap,                !- City
  NY,                                     !- State Province Region
  USA,                                    !- Country
  TMY3,                                   !- Data Source
  725280,                                 !- WMO Number
  42.93,                                  !- Latitude {deg}
  -78.73,                                 !- Longitude {deg}
  -5,                                     !- Time Zone {hr}
  215,                                    !- Elevation {m}
  /Users/nmoore/github/urbanopt-example-geojson-project/example_project/weather/USA_NY_Buffalo-Greater.Buffalo.Intl.AP.725280_TMY3.epw, !- Url
  6B50E0FF,                               !- Checksum
  ,                                       !- Start Date Actual Year
  Sunday;                                 !- Start Day of Week

OS:YearDescription,
  {c27c8b5c-a41b-4735-8f15-6540dda8e1af}, !- Handle
  2007,                                   !- Calendar Year
  ,                                       !- Day of Week for Start Day
  ;                                       !- Is Leap Year

OS:Site,
  {85023f66-70d2-4bd0-9c61-e9d37755046d}, !- Handle
  Buffalo Niagara Intl Ap_NY,             !- Name
  42.93,                                  !- Latitude {deg}
  -78.73,                                 !- Longitude {deg}
  -5,                                     !- Time Zone {hr}
  215,                                    !- Elevation {m}
  Suburbs,                                !- Terrain
  Yes;                                    !- Keep Site Location Information

OS:RunPeriodControl:DaylightSavingTime,
  {715778be-fa28-4370-aeb3-1140d44a8e74}, !- Handle
  Mar 12,                                 !- Start Date
  Nov 5;                                  !- End Date

OS:Site:GroundTemperature:Shallow,
  {2cda1cca-5091-43ef-929d-1a520d17fa23}, !- Handle
  4.30207395723828,                       !- January Surface Ground Temperature {C}
  2.29327249652502,                       !- February Surface Ground Temperature {C}
  2.13240047156047,                       !- March Surface Ground Temperature {C}
  3.08567940719286,                       !- April Surface Ground Temperature {C}
  6.91256312497526,                       !- May Surface Ground Temperature {C}
  10.7216195949507,                       !- June Surface Ground Temperature {C}
  14.0238679822574,                       !- July Surface Ground Temperature {C}
  16.1157611184724,                       !- August Surface Ground Temperature {C}
  16.2934789303462,                       !- September Surface Ground Temperature {C}
  14.5920754632847,                       !- October Surface Ground Temperature {C}
  11.374036348653,                        !- November Surface Ground Temperature {C}
  7.68182621661674;                       !- December Surface Ground Temperature {C}

OS:ThermalZone,
  {3c160425-2529-4be9-953d-ccd8234295f4}, !- Handle
  conditioned space,                      !- Name
  1,                                      !- Multiplier
  ,                                       !- Ceiling Height {m}
  692.06373070848,                        !- Volume {m3}
  ,                                       !- Floor Area {m2}
  ,                                       !- Zone Inside Convection Algorithm
  ,                                       !- Zone Outside Convection Algorithm
  ,                                       !- Zone Conditioning Equipment List Name
  {9a3133d5-f944-494e-9dc6-8d8a3fdca498}, !- Zone Air Inlet Port List
  {9a056d2d-82f9-4563-9ad1-66bfc587759f}, !- Zone Air Exhaust Port List
  {3306326d-9a31-4acc-bfad-12e2bfb1abe8}, !- Zone Air Node Name
  {cc0b54fd-767a-4771-ae47-0120fee1fc6a}, !- Zone Return Air Port List
  ,                                       !- Primary Daylighting Control Name
  ,                                       !- Fraction of Zone Controlled by Primary Daylighting Control
  ,                                       !- Secondary Daylighting Control Name
  ,                                       !- Fraction of Zone Controlled by Secondary Daylighting Control
  ,                                       !- Illuminance Map Name
  ,                                       !- Group Rendering Name
  {78ac6936-804c-4d14-8371-cf94fb418f6c}, !- Thermostat Name
  No;                                     !- Use Ideal Air Loads

OS:Node,
  {f4c78859-fbc3-43be-80b8-e90af0c979c6}, !- Handle
  Node 1,                                 !- Name
  {3306326d-9a31-4acc-bfad-12e2bfb1abe8}, !- Inlet Port
  ;                                       !- Outlet Port

OS:Connection,
  {3306326d-9a31-4acc-bfad-12e2bfb1abe8}, !- Handle
  {3c160425-2529-4be9-953d-ccd8234295f4}, !- Source Object
  11,                                     !- Outlet Port
  {f4c78859-fbc3-43be-80b8-e90af0c979c6}, !- Target Object
  2;                                      !- Inlet Port

OS:PortList,
  {9a3133d5-f944-494e-9dc6-8d8a3fdca498}, !- Handle
  {3c160425-2529-4be9-953d-ccd8234295f4}, !- HVAC Component
  {54be00cb-ecaf-4574-af51-4ab924631ea1}; !- Port 1

OS:PortList,
  {9a056d2d-82f9-4563-9ad1-66bfc587759f}, !- Handle
  {3c160425-2529-4be9-953d-ccd8234295f4}; !- HVAC Component

OS:PortList,
  {cc0b54fd-767a-4771-ae47-0120fee1fc6a}, !- Handle
  {3c160425-2529-4be9-953d-ccd8234295f4}, !- HVAC Component
  {1d385a19-3efe-4cb9-9d2d-b768a3504233}; !- Port 1

OS:Sizing:Zone,
  {d65491ce-3b0d-4ed3-9c27-818441909199}, !- Handle
  {3c160425-2529-4be9-953d-ccd8234295f4}, !- Zone or ZoneList Name
  SupplyAirTemperature,                   !- Zone Cooling Design Supply Air Temperature Input Method
  14,                                     !- Zone Cooling Design Supply Air Temperature {C}
  11.11,                                  !- Zone Cooling Design Supply Air Temperature Difference {deltaC}
  SupplyAirTemperature,                   !- Zone Heating Design Supply Air Temperature Input Method
  40,                                     !- Zone Heating Design Supply Air Temperature {C}
  11.11,                                  !- Zone Heating Design Supply Air Temperature Difference {deltaC}
  0.0085,                                 !- Zone Cooling Design Supply Air Humidity Ratio {kg-H2O/kg-air}
  0.008,                                  !- Zone Heating Design Supply Air Humidity Ratio {kg-H2O/kg-air}
  ,                                       !- Zone Heating Sizing Factor
  ,                                       !- Zone Cooling Sizing Factor
  DesignDay,                              !- Cooling Design Air Flow Method
  ,                                       !- Cooling Design Air Flow Rate {m3/s}
  ,                                       !- Cooling Minimum Air Flow per Zone Floor Area {m3/s-m2}
  ,                                       !- Cooling Minimum Air Flow {m3/s}
  ,                                       !- Cooling Minimum Air Flow Fraction
  DesignDay,                              !- Heating Design Air Flow Method
  ,                                       !- Heating Design Air Flow Rate {m3/s}
  ,                                       !- Heating Maximum Air Flow per Zone Floor Area {m3/s-m2}
  ,                                       !- Heating Maximum Air Flow {m3/s}
  ,                                       !- Heating Maximum Air Flow Fraction
  No,                                     !- Account for Dedicated Outdoor Air System
  NeutralSupplyAir,                       !- Dedicated Outdoor Air System Control Strategy
  autosize,                               !- Dedicated Outdoor Air Low Setpoint Temperature for Design {C}
  autosize,                               !- Dedicated Outdoor Air High Setpoint Temperature for Design {C}
  Sensible Load Only No Latent Load,      !- Zone Load Sizing Method
  HumidityRatioDifference,                !- Zone Latent Cooling Design Supply Air Humidity Ratio Input Method
  ,                                       !- Zone Dehumidification Design Supply Air Humidity Ratio {kgWater/kgDryAir}
  0.005,                                  !- Zone Cooling Design Supply Air Humidity Ratio Difference {kgWater/kgDryAir}
  HumidityRatioDifference,                !- Zone Latent Heating Design Supply Air Humidity Ratio Input Method
  ,                                       !- Zone Humidification Design Supply Air Humidity Ratio {kgWater/kgDryAir}
  0.005,                                  !- Zone Humidification Design Supply Air Humidity Ratio Difference {kgWater/kgDryAir}
  ,                                       !- Zone Humidistat Dehumidification Set Point Schedule Name
  ,                                       !- Zone Humidistat Humidification Set Point Schedule Name
  ,                                       !- Design Zone Air Distribution Effectiveness in Cooling Mode
  ,                                       !- Design Zone Air Distribution Effectiveness in Heating Mode
  ,                                       !- Design Zone Secondary Recirculation Fraction {dimensionless}
  ,                                       !- Design Minimum Zone Ventilation Efficiency {dimensionless}
  Coincident;                             !- Sizing Option

OS:ZoneHVAC:EquipmentList,
  {2a665d22-10e3-4e72-a55a-b12357c32cc2}, !- Handle
  Zone HVAC Equipment List 1,             !- Name
  {3c160425-2529-4be9-953d-ccd8234295f4}, !- Thermal Zone
  ,                                       !- Load Distribution Scheme
  {cd3cfe43-f861-4a5d-ba20-3d7c914c23e9}, !- Zone Equipment 1
  1,                                      !- Zone Equipment Cooling Sequence 1
  1,                                      !- Zone Equipment Heating or No-Load Sequence 1
  {448bfeec-30ae-4e57-bb71-eaba55d7125b}, !- Zone Equipment Sequential Cooling Fraction Schedule Name 1
  {e4976e91-1f02-4333-ab0c-4406267728b7}, !- Zone Equipment Sequential Heating Fraction Schedule Name 1
  {a0fb3105-9168-40ec-91c2-b71ef0e0091e}, !- Zone Equipment 2
  2,                                      !- Zone Equipment Cooling Sequence 2
  2,                                      !- Zone Equipment Heating or No-Load Sequence 2
  {df8dd1fc-084a-42d6-a80e-a91b43258c9a}, !- Zone Equipment Sequential Cooling Fraction Schedule Name 2
  {4c4df4b9-9e90-4712-9b70-8eb465e704a0}; !- Zone Equipment Sequential Heating Fraction Schedule Name 2

OS:AdditionalProperties,
  {50a4f4cf-07cb-4e71-ad70-8dfa6cc81c5c}, !- Handle
  {3c160425-2529-4be9-953d-ccd8234295f4}, !- Object Name
  ObjectType,                             !- Feature Name 1
  String,                                 !- Feature Data Type 1
  conditioned space;                      !- Feature Value 1

OS:Space,
  {760ff94c-db13-4db2-abff-d197fc544012}, !- Handle
  conditioned space 1,                    !- Name
  ,                                       !- Space Type Name
  ,                                       !- Default Construction Set Name
  ,                                       !- Default Schedule Set Name
  ,                                       !- Direction of Relative North {deg}
  ,                                       !- X Origin {m}
  ,                                       !- Y Origin {m}
  ,                                       !- Z Origin {m}
  ,                                       !- Building Story Name
  {3c160425-2529-4be9-953d-ccd8234295f4}, !- Thermal Zone Name
  ,                                       !- Part of Total Floor Area
  ,                                       !- Design Specification Outdoor Air Object Name
  ,                                       !- Building Unit Name
  692.06373070848;                        !- Volume {m3}

OS:Schedule:Ruleset,
  {0b2c30fb-9f2c-445c-8573-55b47a9aacdf}, !- Handle
  heating setpoint,                       !- Name
  {2284fbde-538a-444e-bc30-f0ad588103bf}, !- Schedule Type Limits Name
  {2cbf6d49-06f5-4c81-81cf-940ad759bf77}; !- Default Day Schedule Name

OS:Schedule:Day,
  {2cbf6d49-06f5-4c81-81cf-940ad759bf77}, !- Handle
  heating setpoint default day,           !- Name
  {2284fbde-538a-444e-bc30-f0ad588103bf}, !- Schedule Type Limits Name
  ,                                       !- Interpolate to Timestep
  24,                                     !- Hour 1
  0,                                      !- Minute 1
  0;                                      !- Value Until Time 1

OS:Schedule:Rule,
  {78358dd5-9391-4f26-aa3e-8214c12b4c94}, !- Handle
  heating setpoint allday rule,           !- Name
  {0b2c30fb-9f2c-445c-8573-55b47a9aacdf}, !- Schedule Ruleset Name
  0,                                      !- Rule Order
  {fc193ec1-96d6-46a6-aa4c-a7dc88a51c1a}, !- Day Schedule Name
  Yes,                                    !- Apply Sunday
  Yes,                                    !- Apply Monday
  Yes,                                    !- Apply Tuesday
  Yes,                                    !- Apply Wednesday
  Yes,                                    !- Apply Thursday
  Yes,                                    !- Apply Friday
  Yes,                                    !- Apply Saturday
  DateRange,                              !- Date Specification Type
  1,                                      !- Start Month
  1,                                      !- Start Day
  12,                                     !- End Month
  31;                                     !- End Day

OS:Schedule:Day,
  {fc193ec1-96d6-46a6-aa4c-a7dc88a51c1a}, !- Handle
  heating setpoint day,                   !- Name
  {2284fbde-538a-444e-bc30-f0ad588103bf}, !- Schedule Type Limits Name
  ,                                       !- Interpolate to Timestep
  24,                                     !- Hour 1
  0,                                      !- Minute 1
  20;                                     !- Value Until Time 1

OS:Schedule:Ruleset,
  {9c89ee5d-aa90-4dba-bb29-3e5b3ce4d277}, !- Handle
  cooling setpoint,                       !- Name
  {2284fbde-538a-444e-bc30-f0ad588103bf}, !- Schedule Type Limits Name
  {95a22834-240e-402b-83f4-e8a4c4fe4ec6}; !- Default Day Schedule Name

OS:Schedule:Day,
  {95a22834-240e-402b-83f4-e8a4c4fe4ec6}, !- Handle
  cooling setpoint default day,           !- Name
  {2284fbde-538a-444e-bc30-f0ad588103bf}, !- Schedule Type Limits Name
  ,                                       !- Interpolate to Timestep
  24,                                     !- Hour 1
  0,                                      !- Minute 1
  0;                                      !- Value Until Time 1

OS:Schedule:Rule,
  {7c214427-fb6a-4b3b-8804-ce624764637e}, !- Handle
  cooling setpoint allday rule,           !- Name
  {9c89ee5d-aa90-4dba-bb29-3e5b3ce4d277}, !- Schedule Ruleset Name
  0,                                      !- Rule Order
  {c2896f2a-a615-40f5-a8d1-7dc88ff3353a}, !- Day Schedule Name
  Yes,                                    !- Apply Sunday
  Yes,                                    !- Apply Monday
  Yes,                                    !- Apply Tuesday
  Yes,                                    !- Apply Wednesday
  Yes,                                    !- Apply Thursday
  Yes,                                    !- Apply Friday
  Yes,                                    !- Apply Saturday
  DateRange,                              !- Date Specification Type
  1,                                      !- Start Month
  1,                                      !- Start Day
  12,                                     !- End Month
  31;                                     !- End Day

OS:Schedule:Day,
  {c2896f2a-a615-40f5-a8d1-7dc88ff3353a}, !- Handle
  cooling setpoint day,                   !- Name
  {2284fbde-538a-444e-bc30-f0ad588103bf}, !- Schedule Type Limits Name
  ,                                       !- Interpolate to Timestep
  24,                                     !- Hour 1
  0,                                      !- Minute 1
  25.5555555555556;                       !- Value Until Time 1

OS:ThermostatSetpoint:DualSetpoint,
  {78ac6936-804c-4d14-8371-cf94fb418f6c}, !- Handle
  conditioned space temperature setpoint, !- Name
  {0b2c30fb-9f2c-445c-8573-55b47a9aacdf}, !- Heating Setpoint Temperature Schedule Name
  {9c89ee5d-aa90-4dba-bb29-3e5b3ce4d277}, !- Cooling Setpoint Temperature Schedule Name
  0;                                      !- Temperature Difference Between Cutout And Setpoint {deltaC}

OS:ScheduleTypeLimits,
  {2284fbde-538a-444e-bc30-f0ad588103bf}, !- Handle
  Temperature,                            !- Name
  ,                                       !- Lower Limit Value
  ,                                       !- Upper Limit Value
  Continuous,                             !- Numeric Type
  Temperature;                            !- Unit Type

OS:Surface,
  {66f7db5b-d77a-4d48-88a7-7a50b2964a9b}, !- Handle
  Roof1,                                  !- Name
  RoofCeiling,                            !- Surface Type
  {ac57f969-685e-40d9-b8d2-1f0d33ce572d}, !- Construction Name
  {c0cf5c37-3c49-4f7d-abea-86d76d7b52e6}, !- Space Name
  Outdoors,                               !- Outside Boundary Condition
  ,                                       !- Outside Boundary Condition Object
  SunExposed,                             !- Sun Exposure
  WindExposed,                            !- Wind Exposure
  ,                                       !- View Factor to Ground
  ,                                       !- Number of Vertices
  -26.9347048849634, 58.0557891618865, 2.4384, !- X,Y,Z Vertex 1 {m}
  -26.9347048849634, 46.7895631136661, 8.0715130241102, !- X,Y,Z Vertex 2 {m}
  -14.3386812381136, 46.7895631136661, 8.0715130241102, !- X,Y,Z Vertex 3 {m}
  -14.3386812381136, 58.0557891618865, 2.4384; !- X,Y,Z Vertex 4 {m}

OS:AdditionalProperties,
  {8cd90e95-5601-4c6b-b068-456dfb4d7fde}, !- Handle
  {66f7db5b-d77a-4d48-88a7-7a50b2964a9b}, !- Object Name
  Length,                                 !- Feature Name 1
  Double,                                 !- Feature Data Type 1
  41.325536899113608,                     !- Feature Value 1
  Width,                                  !- Feature Name 2
  Double,                                 !- Feature Data Type 2
  41.325536899113601,                     !- Feature Value 2
  Azimuth,                                !- Feature Name 3
  Integer,                                !- Feature Data Type 3
  0,                                      !- Feature Value 3
  Tilt,                                   !- Feature Name 4
  Double,                                 !- Feature Data Type 4
  0.5,                                    !- Feature Value 4
  SurfaceType,                            !- Feature Name 5
  String,                                 !- Feature Data Type 5
  Roof;                                   !- Feature Value 5

OS:ThermalZone,
  {a051d7bf-5336-4652-9348-d40538df7846}, !- Handle
  attic - vented,                         !- Name
  1,                                      !- Multiplier
  ,                                       !- Ceiling Height {m}
  356.390921899745,                       !- Volume {m3}
  ,                                       !- Floor Area {m2}
  ,                                       !- Zone Inside Convection Algorithm
  ,                                       !- Zone Outside Convection Algorithm
  ,                                       !- Zone Conditioning Equipment List Name
  {73112004-e1f1-4082-bfdf-45565e4871bb}, !- Zone Air Inlet Port List
  {4ee2dab0-5497-4b79-a83d-508ad6010ebb}, !- Zone Air Exhaust Port List
  {0cd40f7b-ad6f-4865-b57e-dc1aae67d783}, !- Zone Air Node Name
  {2ccfb54b-3db9-4e59-96c1-37ff0fc1d042}, !- Zone Return Air Port List
  ,                                       !- Primary Daylighting Control Name
  ,                                       !- Fraction of Zone Controlled by Primary Daylighting Control
  ,                                       !- Secondary Daylighting Control Name
  ,                                       !- Fraction of Zone Controlled by Secondary Daylighting Control
  ,                                       !- Illuminance Map Name
  ,                                       !- Group Rendering Name
  ,                                       !- Thermostat Name
  No;                                     !- Use Ideal Air Loads

OS:Node,
  {e190a50b-fa9f-4141-868a-bb86be2c47f0}, !- Handle
  Node 2,                                 !- Name
  {0cd40f7b-ad6f-4865-b57e-dc1aae67d783}, !- Inlet Port
  ;                                       !- Outlet Port

OS:Connection,
  {0cd40f7b-ad6f-4865-b57e-dc1aae67d783}, !- Handle
  {a051d7bf-5336-4652-9348-d40538df7846}, !- Source Object
  11,                                     !- Outlet Port
  {e190a50b-fa9f-4141-868a-bb86be2c47f0}, !- Target Object
  2;                                      !- Inlet Port

OS:PortList,
  {73112004-e1f1-4082-bfdf-45565e4871bb}, !- Handle
  {a051d7bf-5336-4652-9348-d40538df7846}; !- HVAC Component

OS:PortList,
  {4ee2dab0-5497-4b79-a83d-508ad6010ebb}, !- Handle
  {a051d7bf-5336-4652-9348-d40538df7846}; !- HVAC Component

OS:PortList,
  {2ccfb54b-3db9-4e59-96c1-37ff0fc1d042}, !- Handle
  {a051d7bf-5336-4652-9348-d40538df7846}; !- HVAC Component

OS:Sizing:Zone,
  {59d15da8-74be-434f-a8fb-452e241f43af}, !- Handle
  {a051d7bf-5336-4652-9348-d40538df7846}, !- Zone or ZoneList Name
  SupplyAirTemperature,                   !- Zone Cooling Design Supply Air Temperature Input Method
  14,                                     !- Zone Cooling Design Supply Air Temperature {C}
  11.11,                                  !- Zone Cooling Design Supply Air Temperature Difference {deltaC}
  SupplyAirTemperature,                   !- Zone Heating Design Supply Air Temperature Input Method
  40,                                     !- Zone Heating Design Supply Air Temperature {C}
  11.11,                                  !- Zone Heating Design Supply Air Temperature Difference {deltaC}
  0.0085,                                 !- Zone Cooling Design Supply Air Humidity Ratio {kg-H2O/kg-air}
  0.008,                                  !- Zone Heating Design Supply Air Humidity Ratio {kg-H2O/kg-air}
  ,                                       !- Zone Heating Sizing Factor
  ,                                       !- Zone Cooling Sizing Factor
  DesignDay,                              !- Cooling Design Air Flow Method
  ,                                       !- Cooling Design Air Flow Rate {m3/s}
  ,                                       !- Cooling Minimum Air Flow per Zone Floor Area {m3/s-m2}
  ,                                       !- Cooling Minimum Air Flow {m3/s}
  ,                                       !- Cooling Minimum Air Flow Fraction
  DesignDay,                              !- Heating Design Air Flow Method
  ,                                       !- Heating Design Air Flow Rate {m3/s}
  ,                                       !- Heating Maximum Air Flow per Zone Floor Area {m3/s-m2}
  ,                                       !- Heating Maximum Air Flow {m3/s}
  ,                                       !- Heating Maximum Air Flow Fraction
  No,                                     !- Account for Dedicated Outdoor Air System
  NeutralSupplyAir,                       !- Dedicated Outdoor Air System Control Strategy
  autosize,                               !- Dedicated Outdoor Air Low Setpoint Temperature for Design {C}
  autosize,                               !- Dedicated Outdoor Air High Setpoint Temperature for Design {C}
  Sensible Load Only No Latent Load,      !- Zone Load Sizing Method
  HumidityRatioDifference,                !- Zone Latent Cooling Design Supply Air Humidity Ratio Input Method
  ,                                       !- Zone Dehumidification Design Supply Air Humidity Ratio {kgWater/kgDryAir}
  0.005,                                  !- Zone Cooling Design Supply Air Humidity Ratio Difference {kgWater/kgDryAir}
  HumidityRatioDifference,                !- Zone Latent Heating Design Supply Air Humidity Ratio Input Method
  ,                                       !- Zone Humidification Design Supply Air Humidity Ratio {kgWater/kgDryAir}
  0.005,                                  !- Zone Humidification Design Supply Air Humidity Ratio Difference {kgWater/kgDryAir}
  ,                                       !- Zone Humidistat Dehumidification Set Point Schedule Name
  ,                                       !- Zone Humidistat Humidification Set Point Schedule Name
  ,                                       !- Design Zone Air Distribution Effectiveness in Cooling Mode
  ,                                       !- Design Zone Air Distribution Effectiveness in Heating Mode
  ,                                       !- Design Zone Secondary Recirculation Fraction {dimensionless}
  ,                                       !- Design Minimum Zone Ventilation Efficiency {dimensionless}
  Coincident;                             !- Sizing Option

OS:ZoneHVAC:EquipmentList,
  {80679e38-ca5d-420d-9430-48a9316c4030}, !- Handle
  Zone HVAC Equipment List 2,             !- Name
  {a051d7bf-5336-4652-9348-d40538df7846}; !- Thermal Zone

OS:AdditionalProperties,
  {cb2a8afe-421b-405f-ba5a-a776728be853}, !- Handle
  {a051d7bf-5336-4652-9348-d40538df7846}, !- Object Name
  ObjectType,                             !- Feature Name 1
  String,                                 !- Feature Data Type 1
  attic - vented;                         !- Feature Value 1

OS:Space,
  {c0cf5c37-3c49-4f7d-abea-86d76d7b52e6}, !- Handle
  attic - vented 1,                       !- Name
  ,                                       !- Space Type Name
  ,                                       !- Default Construction Set Name
  ,                                       !- Default Schedule Set Name
  ,                                       !- Direction of Relative North {deg}
  ,                                       !- X Origin {m}
  ,                                       !- Y Origin {m}
  ,                                       !- Z Origin {m}
  ,                                       !- Building Story Name
  {a051d7bf-5336-4652-9348-d40538df7846}, !- Thermal Zone Name
  ,                                       !- Part of Total Floor Area
  ,                                       !- Design Specification Outdoor Air Object Name
  ,                                       !- Building Unit Name
  356.390921899745;                       !- Volume {m3}

OS:Material,
  {36998cdb-f9a9-4a60-853f-1ad13c4febbe}, !- Handle
  asphalt or fiberglass shingles,         !- Name