
OS:Version,
  {6b34f1fd-6046-4a44-b0d6-4a3cbbef200a}, !- Handle
  3.10.0;                                 !- Version Identifier

OS:SimulationControl,
  {85c61af5-b0a3-43b7-a6d8-4cd3d84f5b17}, !- Handle
  ,                                       !- Do Zone Sizing Calculation
  ,                                       !- Do System Sizing Calculation
  ,                                       !- Do Plant Sizing Calculation
  No;                                     !- Run Simulation for Sizing Periods

OS:Timestep,
  {e4b248da-289f-435f-b2b8-abe37edac519}, !- Handle
  1;                                      !- Number of Timesteps per Hour

OS:ShadowCalculation,
  {5f19163c-db59-4a02-bf2e-68e1e026102b}, !- Handle
  PolygonClipping,                        !- Shading Calculation Method
  ,                                       !- Shading Calculation Update Frequency Method
  20,                                     !- Shading Calculation Update Frequency
  200,                                    !- Maximum Figures in Shadow Overlap Calculations
  ,                                       !- Polygon Clipping Algorithm
  512,                                    !- Pixel Counting Resolution
  ,                                       !- Sky Diffuse Modeling Algorithm
  No,                                     !- Output External Shading Calculation Results
  No,                                     !- Disable Self-Shading Within Shading Zone Groups
  No;                                     !- Disable Self-Shading From Shading Zone Groups to Other Zones

OS:SurfaceConvectionAlgorithm:Outside,
  {f73d7514-e270-4578-aadd-2689fa0709fb}, !- Handle
  DOE-2;                                  !- Algorithm

OS:SurfaceConvectionAlgorithm:Inside,
  {64f6e447-ad06-482c-8258-209d4f86d7fb}, !- Handle
  TARP;                                   !- Algorithm

OS:ZoneCapacitanceMultiplier:ResearchSpecial,
  {cca9cdb0-3e86-4fdc-be2b-ac0c7023db64}, !- Handle
  7,                                      !- Temperature Capacity Multiplier
  15,                                     !- Humidity Capacity Multiplier
  ;                                       !- Carbon Dioxide Capacity Multiplier

OS:ConvergenceLimits,
  {5cc9138f-f6a3-43f2-8b68-2f1048c46b54}, !- Handle
  0;                                      !- Minimum System Timestep {minutes}

OS:RunPeriod,
  {43f3c833-04e8-4474-b99b-0656c707c8d1}, !- Handle
  Run Period 1,                           !- Name
  1,                                      !- Begin Month
  1,                                      !- Begin Day of Month
  12,                                     !- End Month
  31,                                     !- End Day of Month
  ,                                       !- Use Weather File Holidays and Special Days
  ,                                       !- Use Weather File Daylight Saving Period
  ,                                       !- Apply Weekend Holiday Rule
  ,                                       !- Use Weather File Rain Indicators
  ,                                       !- Use Weather File Snow Indicators
  ;                                       !- Number of Times Runperiod to be Repeated

OS:PerformancePrecisionTradeoffs,
  {2451fbb3-c753-4d27-8c15-f8537273c7f5}, !- Handle
  ,                                       !- Use Coil Direct Solutions
  CarrollMRT;                             !- Zone Radiant Exchange Algorithm

OS:WeatherFile,
  {688fbabc-1598-4562-bfbd-60510ce0dea7}, !- Handle
  Buffalo Niagara Intl Ap,                !- City
  NY,                                     !- State Province Region
  USA,                                    !- Country
  TMY3,                                   !- Data Source
  725280,                                 !- WMO Number
  42.93,                                  !- Latitude {deg}
  -78.73,                                 !- Longitude {deg}
  -5,                                     !- Time Zone {hr}
  215,                                    !- Elevation {m}
  /Users/nmoore/github/urbanopt-example-geojson-project/example_project/weather/USA_NY_Buffalo-Greater.Buffalo.Intl.AP.725280_TMY3.epw, !- Url
  6B50E0FF,                               !- Checksum
  ,                                       !- Start Date Actual Year
  Sunday;                                 !- Start Day of Week

OS:YearDescription,
  {0250b585-1e7d-4b04-8887-d2835ec9b47e}, !- Handle
  2007,                                   !- Calendar Year
  ,                                       !- Day of Week for Start Day
  ;                                       !- Is Leap Year

OS:Site,
  {78895c5a-8de2-44e4-a9e1-ef65ecd2a198}, !- Handle
  Buffalo Niagara Intl Ap_NY,             !- Name
  42.93,                                  !- Latitude {deg}
  -78.73,                                 !- Longitude {deg}
  -5,                                     !- Time Zone {hr}
  215,                                    !- Elevation {m}
  Suburbs,                                !- Terrain
  Yes;                                    !- Keep Site Location Information

OS:RunPeriodControl:DaylightSavingTime,
  {722e7f4e-7a5f-4e43-8a50-5f94a6fe06b2}, !- Handle
  Mar 12,                                 !- Start Date
  Nov 5;                                  !- End Date

OS:Site:GroundTemperature:Shallow,
  {eb14633e-a784-4883-acf9-cdbfb5210bf9}, !- Handle
  4.30207395723828,                       !- January Surface Ground Temperature {C}
  2.29327249652502,                       !- February Surface Ground Temperature {C}
  2.13240047156047,                       !- March Surface Ground Temperature {C}
  3.08567940719286,                       !- April Surface Ground Temperature {C}
  6.91256312497526,                       !- May Surface Ground Temperature {C}
  10.7216195949507,                       !- June Surface Ground Temperature {C}
  14.0238679822574,                       !- July Surface Ground Temperature {C}
  16.1157611184724,                       !- August Surface Ground Temperature {C}
  16.2934789303462,                       !- September Surface Ground Temperature {C}
  14.5920754632847,                       !- October Surface Ground Temperature {C}
  11.374036348653,                        !- November Surface Ground Temperature {C}
  7.68182621661674;                       !- December Surface Ground Temperature {C}

OS:ThermalZone,
  {21662de4-8eb1-4b55-af4f-af4e6f8f1003}, !- Handle
  conditioned space,                      !- Name
  1,                                      !- Multiplier
  ,                                       !- Ceiling Height {m}
  692.06373070848,                        !- Volume {m3}
  ,                                       !- Floor Area {m2}
  ,                                       !- Zone Inside Convection Algorithm
  ,                                       !- Zone Outside Convection Algorithm
  ,                                       !- Zone Conditioning Equipment List Name
  {687f57a1-6174-4036-b1b3-d271065e967c}, !- Zone Air Inlet Port List
  {f51f67fb-629f-43ca-8251-a168873ab5cc}, !- Zone Air Exhaust Port List
  {4c31fabd-f7a5-4ea7-bd76-1d95953b0b74}, !- Zone Air Node Name
  {71ed4421-e7ac-4730-a586-557534f943db}, !- Zone Return Air Port List
  ,                                       !- Primary Daylighting Control Name
  ,                                       !- Fraction of Zone Controlled by Primary Daylighting Control
  ,                                       !- Secondary Daylighting Control Name
  ,                                       !- Fraction of Zone Controlled by Secondary Daylighting Control
  ,                                       !- Illuminance Map Name
  ,                                       !- Group Rendering Name
  {6f550b8e-e675-46cd-a5dc-dc34b304c0d6}, !- Thermostat Name
  No;                                     !- Use Ideal Air Loads

OS:Node,
  {46600312-9b76-4778-9fb5-4ad34f3b126a}, !- Handle
  Node 1,                                 !- Name
  {4c31fabd-f7a5-4ea7-bd76-1d95953b0b74}, !- Inlet Port
  ;                                       !- Outlet Port

OS:Connection,
  {4c31fabd-f7a5-4ea7-bd76-1d95953b0b74}, !- Handle
  {21662de4-8eb1-4b55-af4f-af4e6f8f1003}, !- Source Object
  11,                                     !- Outlet Port
  {46600312-9b76-4778-9fb5-4ad34f3b126a}, !- Target Object
  2;                                      !- Inlet Port

OS:PortList,
  {687f57a1-6174-4036-b1b3-d271065e967c}, !- Handle
  {21662de4-8eb1-4b55-af4f-af4e6f8f1003}, !- HVAC Component
  {d1002c9c-1f7f-4a02-a99c-a8fedf2b7c8f}; !- Port 1

OS:PortList,
  {f51f67fb-629f-43ca-8251-a168873ab5cc}, !- Handle
  {21662de4-8eb1-4b55-af4f-af4e6f8f1003}; !- HVAC Component

OS:PortList,
  {71ed4421-e7ac-4730-a586-557534f943db}, !- Handle
  {21662de4-8eb1-4b55-af4f-af4e6f8f1003}, !- HVAC Component
  {80cefe3a-753d-4632-b159-5767ab1b102a}; !- Port 1

OS:Sizing:Zone,
  {75d160d8-6895-4de3-b37c-1bce0aebf47b}, !- Handle
  {21662de4-8eb1-4b55-af4f-af4e6f8f1003}, !- Zone or ZoneList Name
  SupplyAirTemperature,                   !- Zone Cooling Design Supply Air Temperature Input Method
  14,                                     !- Zone Cooling Design Supply Air Temperature {C}
  11.11,                                  !- Zone Cooling Design Supply Air Temperature Difference {deltaC}
  SupplyAirTemperature,                   !- Zone Heating Design Supply Air Temperature Input Method
  40,                                     !- Zone Heating Design Supply Air Temperature {C}
  11.11,                                  !- Zone Heating Design Supply Air Temperature Difference {deltaC}
  0.0085,                                 !- Zone Cooling Design Supply Air Humidity Ratio {kg-H2O/kg-air}
  0.008,                                  !- Zone Heating Design Supply Air Humidity Ratio {kg-H2O/kg-air}
  ,                                       !- Zone Heating Sizing Factor
  ,                                       !- Zone Cooling Sizing Factor
  DesignDay,                              !- Cooling Design Air Flow Method
  ,                                       !- Cooling Design Air Flow Rate {m3/s}
  ,                                       !- Cooling Minimum Air Flow per Zone Floor Area {m3/s-m2}
  ,                                       !- Cooling Minimum Air Flow {m3/s}
  ,                                       !- Cooling Minimum Air Flow Fraction
  DesignDay,                              !- Heating Design Air Flow Method
  ,                                       !- Heating Design Air Flow Rate {m3/s}
  ,                                       !- Heating Maximum Air Flow per Zone Floor Area {m3/s-m2}
  ,                                       !- Heating Maximum Air Flow {m3/s}
  ,                                       !- Heating Maximum Air Flow Fraction
  No,                                     !- Account for Dedicated Outdoor Air System
  NeutralSupplyAir,                       !- Dedicated Outdoor Air System Control Strategy
  autosize,                               !- Dedicated Outdoor Air Low Setpoint Temperature for Design {C}
  autosize,                               !- Dedicated Outdoor Air High Setpoint Temperature for Design {C}
  Sensible Load Only No Latent Load,      !- Zone Load Sizing Method
  HumidityRatioDifference,                !- Zone Latent Cooling Design Supply Air Humidity Ratio Input Method
  ,                                       !- Zone Dehumidification Design Supply Air Humidity Ratio {kgWater/kgDryAir}
  0.005,                                  !- Zone Cooling Design Supply Air Humidity Ratio Difference {kgWater/kgDryAir}
  HumidityRatioDifference,                !- Zone Latent Heating Design Supply Air Humidity Ratio Input Method
  ,                                       !- Zone Humidification Design Supply Air Humidity Ratio {kgWater/kgDryAir}
  0.005,                                  !- Zone Humidification Design Supply Air Humidity Ratio Difference {kgWater/kgDryAir}
  ,                                       !- Zone Humidistat Dehumidification Set Point Schedule Name
  ,                                       !- Zone Humidistat Humidification Set Point Schedule Name
  ,                                       !- Design Zone Air Distribution Effectiveness in Cooling Mode
  ,                                       !- Design Zone Air Distribution Effectiveness in Heating Mode
  ,                                       !- Design Zone Secondary Recirculation Fraction {dimensionless}
  ,                                       !- Design Minimum Zone Ventilation Efficiency {dimensionless}
  Coincident;                             !- Sizing Option

OS:ZoneHVAC:EquipmentList,
  {12187a07-ec64-401a-bdb7-1a854b120001}, !- Handle
  Zone HVAC Equipment List 1,             !- Name
  {21662de4-8eb1-4b55-af4f-af4e6f8f1003}, !- Thermal Zone
  ,                                       !- Load Distribution Scheme
  {9691cc64-150f-424e-bec4-04a7a081b1d9}, !- Zone Equipment 1
  1,                                      !- Zone Equipment Cooling Sequence 1
  1,                                      !- Zone Equipment Heating or No-Load Sequence 1
  {db9ac49c-a923-41b0-9a34-6b134aca910a}, !- Zone Equipment Sequential Cooling Fraction Schedule Name 1
  {83f5fb52-9d9d-4e9c-a9fe-fd37e551f396}; !- Zone Equipment Sequential Heating Fraction Schedule Name 1

OS:AdditionalProperties,
  {0f4fd89d-8dbe-4f9c-b147-c846c5069f21}, !- Handle
  {21662de4-8eb1-4b55-af4f-af4e6f8f1003}, !- Object Name
  ObjectType,                             !- Feature Name 1
  String,                                 !- Feature Data Type 1
  conditioned space;                      !- Feature Value 1

OS:Space,
  {f37b4445-06a4-4ffa-8e3e-cf6886b9576e}, !- Handle
  conditioned space 1,                    !- Name
  ,                                       !- Space Type Name
  ,                                       !- Default Construction Set Name
  ,                                       !- Default Schedule Set Name
  ,                                       !- Direction of Relative North {deg}
  ,                                       !- X Origin {m}
  ,                                       !- Y Origin {m}
  ,                                       !- Z Origin {m}
  ,                                       !- Building Story Name
  {21662de4-8eb1-4b55-af4f-af4e6f8f1003}, !- Thermal Zone Name
  ,                                       !- Part of Total Floor Area
  ,                                       !- Design Specification Outdoor Air Object Name
  ,                                       !- Building Unit Name
  692.06373070848;                        !- Volume {m3}

OS:Schedule:Ruleset,
  {18807eaf-a43f-4810-a698-436fca1719ca}, !- Handle
  heating setpoint,                       !- Name
  {5312aa27-432a-4455-abef-717e7384079e}, !- Schedule Type Limits Name
  {9b5419a6-8631-4052-842d-6737f6737136}; !- Default Day Schedule Name

OS:Schedule:Day,
  {9b5419a6-8631-4052-842d-6737f6737136}, !- Handle
  heating setpoint default day,           !- Name
  {5312aa27-432a-4455-abef-717e7384079e}, !- Schedule Type Limits Name
  ,                                       !- Interpolate to Timestep
  24,                                     !- Hour 1
  0,                                      !- Minute 1
  0;                                      !- Value Until Time 1

OS:Schedule:Rule,
  {9f0bb62f-9980-4589-939b-1a65cf5aee39}, !- Handle
  heating setpoint allday rule,           !- Name
  {18807eaf-a43f-4810-a698-436fca1719ca}, !- Schedule Ruleset Name
  0,                                      !- Rule Order
  {ff2f8b70-1b89-48d1-8c6f-6ff081358f17}, !- Day Schedule Name
  Yes,                                    !- Apply Sunday
  Yes,                                    !- Apply Monday
  Yes,                                    !- Apply Tuesday
  Yes,                                    !- Apply Wednesday
  Yes,                                    !- Apply Thursday
  Yes,                                    !- Apply Friday
  Yes,                                    !- Apply Saturday
  DateRange,                              !- Date Specification Type
  1,                                      !- Start Month
  1,                                      !- Start Day
  12,                                     !- End Month
  31;                                     !- End Day

OS:Schedule:Day,
  {ff2f8b70-1b89-48d1-8c6f-6ff081358f17}, !- Handle
  heating setpoint day,                   !- Name
  {5312aa27-432a-4455-abef-717e7384079e}, !- Schedule Type Limits Name
  ,                                       !- Interpolate to Timestep
  24,                                     !- Hour 1
  0,                                      !- Minute 1
  20;                                     !- Value Until Time 1

OS:Schedule:Ruleset,
  {8843bb2f-5cbb-4883-85c2-f3d3d43654be}, !- Handle
  cooling setpoint,                       !- Name
  {5312aa27-432a-4455-abef-717e7384079e}, !- Schedule Type Limits Name
  {d9623c86-769b-4a0c-a1d6-aad02d7387cc}; !- Default Day Schedule Name

OS:Schedule:Day,
  {d9623c86-769b-4a0c-a1d6-aad02d7387cc}, !- Handle
  cooling setpoint default day,           !- Name
  {5312aa27-432a-4455-abef-717e7384079e}, !- Schedule Type Limits Name
  ,                                       !- Interpolate to Timestep
  24,                                     !- Hour 1
  0,                                      !- Minute 1
  0;                                      !- Value Until Time 1

OS:Schedule:Rule,
  {2c36031a-aebc-4bf6-a6e4-22c580104b9a}, !- Handle
  cooling setpoint allday rule,           !- Name
  {8843bb2f-5cbb-4883-85c2-f3d3d43654be}, !- Schedule Ruleset Name
  0,                                      !- Rule Order
  {5dc8abe4-ee32-427d-bce8-a441afe5779d}, !- Day Schedule Name
  Yes,                                    !- Apply Sunday
  Yes,                                    !- Apply Monday
  Yes,                                    !- Apply Tuesday
  Yes,                                    !- Apply Wednesday
  Yes,                                    !- Apply Thursday
  Yes,                                    !- Apply Friday
  Yes,                                    !- Apply Saturday
  DateRange,                              !- Date Specification Type
  1,                                      !- Start Month
  1,                                      !- Start Day
  12,                                     !- End Month
  31;                                     !- End Day

OS:Schedule:Day,
  {5dc8abe4-ee32-427d-bce8-a441afe5779d}, !- Handle
  cooling setpoint day,                   !- Name
  {5312aa27-432a-4455-abef-717e7384079e}, !- Schedule Type Limits Name
  ,                                       !- Interpolate to Timestep
  24,                                     !- Hour 1
  0,                                      !- Minute 1
  25.5555555555556;                       !- Value Until Time 1

OS:ThermostatSetpoint:DualSetpoint,
  {6f550b8e-e675-46cd-a5dc-dc34b304c0d6}, !- Handle
  conditioned space temperature setpoint, !- Name
  {18807eaf-a43f-4810-a698-436fca1719ca}, !- Heating Setpoint Temperature Schedule Name
  {8843bb2f-5cbb-4883-85c2-f3d3d43654be}, !- Cooling Setpoint Temperature Schedule Name
  0;                                      !- Temperature Difference Between Cutout And Setpoint {deltaC}

OS:ScheduleTypeLimits,
  {5312aa27-432a-4455-abef-717e7384079e}, !- Handle
  Temperature,                            !- Name
  ,                                       !- Lower Limit Value
  ,                                       !- Upper Limit Value
  Continuous,                             !- Numeric Type
  Temperature;                            !- Unit Type

OS:Surface,
  {9e56b197-bafe-47e2-a9b3-248354c94f04}, !- Handle
  Roof1,                                  !- Name
  RoofCeiling,                            !- Surface Type
  {2fd186d7-560a-44b4-994f-1eee13326016}, !- Construction Name
  {d5c80227-40ff-4f8f-a4de-17e6190b6d85}, !- Space Name
  Outdoors,                               !- Outside Boundary Condition
  ,                                       !- Outside Boundary Condition Object
  SunExposed,                             !- Sun Exposure
  WindExposed,                            !- Wind Exposure
  ,                                       !- View Factor to Ground
  ,                                       !- Number of Vertices
  -26.9347048849634, 58.0557891618865, 2.4384, !- X,Y,Z Vertex 1 {m}
  -26.9347048849634, 46.7895631136661, 8.0715130241102, !- X,Y,Z Vertex 2 {m}
  -14.3386812381136, 46.7895631136661, 8.0715130241102, !- X,Y,Z Vertex 3 {m}
  -14.3386812381136, 58.0557891618865, 2.4384; !- X,Y,Z Vertex 4 {m}

OS:AdditionalProperties,
  {d5465184-774d-476a-9af5-455f108c36a3}, !- Handle
  {9e56b197-bafe-47e2-a9b3-248354c94f04}, !- Object Name
  Length,                                 !- Feature Name 1
  Double,                                 !- Feature Data Type 1
  41.325536899113608,                     !- Feature Value 1
  Width,                                  !- Feature Name 2
  Double,                                 !- Feature Data Type 2
  41.325536899113601,                     !- Feature Value 2
  Azimuth,                                !- Feature Name 3
  Integer,                                !- Feature Data Type 3
  0,                                      !- Feature Value 3
  Tilt,                                   !- Feature Name 4
  Double,                                 !- Feature Data Type 4
  0.5,                                    !- Feature Value 4
  SurfaceType,                            !- Feature Name 5
  String,                                 !- Feature Data Type 5
  Roof;                                   !- Feature Value 5

OS:ThermalZone,
  {23bec4d1-04d8-4da5-9804-3c22289f5a5d}, !- Handle
  attic - vented,                         !- Name
  1,                                      !- Multiplier
  ,                                       !- Ceiling Height {m}
  356.390921899745,                       !- Volume {m3}
  ,                                       !- Floor Area {m2}
  ,                                       !- Zone Inside Convection Algorithm
  ,                                       !- Zone Outside Convection Algorithm
  ,                                       !- Zone Conditioning Equipment List Name
  {91d187fe-ccde-44ff-a029-7caa6a070ff0}, !- Zone Air Inlet Port List
  {4a9e47c3-09b1-41e0-9d3d-3908f432b847}, !- Zone Air Exhaust Port List
  {2bac671f-5b31-4252-9a72-9063c3070176}, !- Zone Air Node Name
  {5fdd1671-ae4c-45d7-b970-f2c026a6fdba}, !- Zone Return Air Port List
  ,                                       !- Primary Daylighting Control Name
  ,                                       !- Fraction of Zone Controlled by Primary Daylighting Control
  ,                                       !- Secondary Daylighting Control Name
  ,                                       !- Fraction of Zone Controlled by Secondary Daylighting Control
  ,                                       !- Illuminance Map Name
  ,                                       !- Group Rendering Name
  ,                                       !- Thermostat Name
  No;                                     !- Use Ideal Air Loads

OS:Node,
  {f13c114d-5363-44bf-b0a9-14973aec8fb8}, !- Handle
  Node 2,                                 !- Name
  {2bac671f-5b31-4252-9a72-9063c3070176}, !- Inlet Port
  ;                                       !- Outlet Port

OS:Connection,
  {2bac671f-5b31-4252-9a72-9063c3070176}, !- Handle
  {23bec4d1-04d8-4da5-9804-3c22289f5a5d}, !- Source Object
  11,                                     !- Outlet Port
  {f13c114d-5363-44bf-b0a9-14973aec8fb8}, !- Target Object
  2;                                      !- Inlet Port

OS:PortList,
  {91d187fe-ccde-44ff-a029-7caa6a070ff0}, !- Handle
  {23bec4d1-04d8-4da5-9804-3c22289f5a5d}; !- HVAC Component

OS:PortList,
  {4a9e47c3-09b1-41e0-9d3d-3908f432b847}, !- Handle
  {23bec4d1-04d8-4da5-9804-3c22289f5a5d}; !- HVAC Component

OS:PortList,
  {5fdd1671-ae4c-45d7-b970-f2c026a6fdba}, !- Handle
  {23bec4d1-04d8-4da5-9804-3c22289f5a5d}; !- HVAC Component

OS:Sizing:Zone,
  {d0d68e18-ae17-4713-a034-27abd3fc360d}, !- Handle
  {23bec4d1-04d8-4da5-9804-3c22289f5a5d}, !- Zone or ZoneList Name
  SupplyAirTemperature,                   !- Zone Cooling Design Supply Air Temperature Input Method
  14,                                     !- Zone Cooling Design Supply Air Temperature {C}
  11.11,                                  !- Zone Cooling Design Supply Air Temperature Difference {deltaC}
  SupplyAirTemperature,                   !- Zone Heating Design Supply Air Temperature Input Method
  40,                                     !- Zone Heating Design Supply Air Temperature {C}
  11.11,                                  !- Zone Heating Design Supply Air Temperature Difference {deltaC}
  0.0085,                                 !- Zone Cooling Design Supply Air Humidity Ratio {kg-H2O/kg-air}
  0.008,                                  !- Zone Heating Design Supply Air Humidity Ratio {kg-H2O/kg-air}
  ,                                       !- Zone Heating Sizing Factor
  ,                                       !- Zone Cooling Sizing Factor
  DesignDay,                              !- Cooling Design Air Flow Method
  ,                                       !- Cooling Design Air Flow Rate {m3/s}
  ,                                       !- Cooling Minimum Air Flow per Zone Floor Area {m3/s-m2}
  ,                                       !- Cooling Minimum Air Flow {m3/s}
  ,                                       !- Cooling Minimum Air Flow Fraction
  DesignDay,                              !- Heating Design Air Flow Method
  ,                                       !- Heating Design Air Flow Rate {m3/s}
  ,                                       !- Heating Maximum Air Flow per Zone Floor Area {m3/s-m2}
  ,                                       !- Heating Maximum Air Flow {m3/s}
  ,                                       !- Heating Maximum Air Flow Fraction
  No,                                     !- Account for Dedicated Outdoor Air System
  NeutralSupplyAir,                       !- Dedicated Outdoor Air System Control Strategy
  autosize,                               !- Dedicated Outdoor Air Low Setpoint Temperature for Design {C}
  autosize,                               !- Dedicated Outdoor Air High Setpoint Temperature for Design {C}
  Sensible Load Only No Latent Load,      !- Zone Load Sizing Method
  HumidityRatioDifference,                !- Zone Latent Cooling Design Supply Air Humidity Ratio Input Method
  ,                                       !- Zone Dehumidification Design Supply Air Humidity Ratio {kgWater/kgDryAir}
  0.005,                                  !- Zone Cooling Design Supply Air Humidity Ratio Difference {kgWater/kgDryAir}
  HumidityRatioDifference,                !- Zone Latent Heating Design Supply Air Humidity Ratio Input Method
  ,                                       !- Zone Humidification Design Supply Air Humidity Ratio {kgWater/kgDryAir}
  0.005,                                  !- Zone Humidification Design Supply Air Humidity Ratio Difference {kgWater/kgDryAir}
  ,                                       !- Zone Humidistat Dehumidification Set Point Schedule Name
  ,                                       !- Zone Humidistat Humidification Set Point Schedule Name
  ,                                       !- Design Zone Air Distribution Effectiveness in Cooling Mode
  ,                                       !- Design Zone Air Distribution Effectiveness in Heating Mode
  ,                                       !- Design Zone Secondary Recirculation Fraction {dimensionless}
  ,                                       !- Design Minimum Zone Ventilation Efficiency {dimensionless}
  Coincident;                             !- Sizing Option

OS:ZoneHVAC:EquipmentList,
  {8af84e5d-4988-4f7d-9d45-267e603504c1}, !- Handle
  Zone HVAC Equipment List 2,             !- Name
  {23bec4d1-04d8-4da5-9804-3c22289f5a5d}; !- Thermal Zone

OS:AdditionalProperties,
  {11a06301-941f-46ec-99bf-bf5fc62aa300}, !- Handle
  {23bec4d1-04d8-4da5-9804-3c22289f5a5d}, !- Object Name
  ObjectType,                             !- Feature Name 1
  String,                                 !- Feature Data Type 1
  attic - vented;                         !- Feature Value 1

OS:Space,
  {d5c80227-40ff-4f8f-a4de-17e6190b6d85}, !- Handle
  attic - vented 1,                       !- Name
  ,                                       !- Space Type Name
  ,                                       !- Default Construction Set Name
  ,                                       !- Default Schedule Set Name
  ,                                       !- Direction of Relative North {deg}
  ,                                       !- X Origin {m}
  ,                                       !- Y Origin {m}
  ,                                       !- Z Origin {m}
  ,                                       !- Building Story Name
  {23bec4d1-04d8-4da5-9804-3c22289f5a5d}, !- Thermal Zone Name
  ,                                       !- Part of Total Floor Area
  ,                                       !- Design Specification Outdoor Air Object Name
  ,                                       !- Building Unit Name
  356.390921899745;                       !- Volume {m3}

OS:Material,
  {c779281d-1ace-4f43-95c3-ae5e106d64ef}, !- Handle
  asphalt or fiberglass shingles,         !- Name
  Rough,                                  !- Roughness
  0.00635,                                !- Thickness {m}
  0.162714,                               !- Conductivity {W/m-K}
  1121.4,                                 !- Density {kg/m3}
  1465.45,                                !- Specific Heat {J/kg-K}
  0.9,                                    !- Thermal Absorptance
  0.85,                                   !- Solar Absorptance