
OS:Version,
  {1813b879-c617-4c64-b164-199e701ae2eb}, !- Handle
  3.9.0;                                  !- Version Identifier

OS:SimulationControl,
  {11813322-1a26-4d0a-b350-9d22a5b2a461}, !- Handle
  ,                                       !- Do Zone Sizing Calculation
  ,                                       !- Do System Sizing Calculation
  ,                                       !- Do Plant Sizing Calculation
  No;                                     !- Run Simulation for Sizing Periods

OS:Timestep,
  {78b1cae1-665e-4d4a-b7d2-1ac23855906d}, !- Handle
  1;                                      !- Number of Timesteps per Hour

OS:ShadowCalculation,
  {bf4c5bec-8480-4b38-b8c9-5eae50a325e5}, !- Handle
  PolygonClipping,                        !- Shading Calculation Method
  ,                                       !- Shading Calculation Update Frequency Method
  20,                                     !- Shading Calculation Update Frequency
  200,                                    !- Maximum Figures in Shadow Overlap Calculations
  ,                                       !- Polygon Clipping Algorithm
  512,                                    !- Pixel Counting Resolution
  ,                                       !- Sky Diffuse Modeling Algorithm
  No,                                     !- Output External Shading Calculation Results
  No,                                     !- Disable Self-Shading Within Shading Zone Groups
  No;                                     !- Disable Self-Shading From Shading Zone Groups to Other Zones

OS:SurfaceConvectionAlgorithm:Outside,
  {2f286ee9-f77b-4321-b5bb-2eb79f3fbb79}, !- Handle
  DOE-2;                                  !- Algorithm

OS:SurfaceConvectionAlgorithm:Inside,
  {d388ac88-e5ec-4dda-a044-447d8e0586ca}, !- Handle
  TARP;                                   !- Algorithm

OS:ZoneCapacitanceMultiplier:ResearchSpecial,
  {1710e957-b9f9-496c-9d9e-0c535a489ee3}, !- Handle
  7,                                      !- Temperature Capacity Multiplier
  15,                                     !- Humidity Capacity Multiplier
  ;                                       !- Carbon Dioxide Capacity Multiplier

OS:ConvergenceLimits,
  {e3554c7a-27fc-4c1f-a027-f1c6ec8966a0}, !- Handle
  0;                                      !- Minimum System Timestep {minutes}

OS:RunPeriod,
  {67c6f409-0187-4341-8411-4bc804601ad9}, !- Handle
  Run Period 1,                           !- Name
  1,                                      !- Begin Month
  1,                                      !- Begin Day of Month
  12,                                     !- End Month
  31,                                     !- End Day of Month
  ,                                       !- Use Weather File Holidays and Special Days
  ,                                       !- Use Weather File Daylight Saving Period
  ,                                       !- Apply Weekend Holiday Rule
  ,                                       !- Use Weather File Rain Indicators
  ,                                       !- Use Weather File Snow Indicators
  ;                                       !- Number of Times Runperiod to be Repeated

OS:PerformancePrecisionTradeoffs,
  {8f6d580d-9c0f-4ff1-b5d1-48df8ed41d06}, !- Handle
  ,                                       !- Use Coil Direct Solutions
  CarrollMRT;                             !- Zone Radiant Exchange Algorithm

OS:WeatherFile,
  {d29f61fb-b399-41e9-96cf-b973c3b47477}, !- Handle
  Buffalo Niagara Intl Ap,                !- City
  NY,                                     !- State Province Region
  USA,                                    !- Country
  TMY3,                                   !- Data Source
  725280,                                 !- WMO Number
  42.93,                                  !- Latitude {deg}
  -78.73,                                 !- Longitude {deg}
  -5,                                     !- Time Zone {hr}
  215,                                    !- Elevation {m}
  /Users/nmoore/github/urbanopt-example-geojson-project/example_project/weather/USA_NY_Buffalo-Greater.Buffalo.Intl.AP.725280_TMY3.epw, !- Url
  6B50E0FF,                               !- Checksum
  ,                                       !- Start Date Actual Year
  Sunday;                                 !- Start Day of Week

OS:YearDescription,
  {1d0e722a-c787-4815-a9a5-87b25430cbb5}, !- Handle
  2007,                                   !- Calendar Year
  ,                                       !- Day of Week for Start Day
  ;                                       !- Is Leap Year

OS:Site,
  {2dd3640a-9aa3-4592-8944-7c21ecc23851}, !- Handle
  Buffalo Niagara Intl Ap_NY,             !- Name
  42.93,                                  !- Latitude {deg}
  -78.73,                                 !- Longitude {deg}
  -5,                                     !- Time Zone {hr}
  215,                                    !- Elevation {m}
  Suburbs,                                !- Terrain
  Yes;                                    !- Keep Site Location Information

OS:RunPeriodControl:DaylightSavingTime,
  {a5ea802d-2848-42ed-9594-8db8897c6e13}, !- Handle
  Mar 12,                                 !- Start Date
  Nov 5;                                  !- End Date

OS:Site:GroundTemperature:Shallow,
  {0b3ff3b8-01c7-4104-938f-ac6c997173d9}, !- Handle
  4.30207395723828,                       !- January Surface Ground Temperature {C}
  2.29327249652502,                       !- February Surface Ground Temperature {C}
  2.13240047156047,                       !- March Surface Ground Temperature {C}
  3.08567940719286,                       !- April Surface Ground Temperature {C}
  6.91256312497526,                       !- May Surface Ground Temperature {C}
  10.7216195949507,                       !- June Surface Ground Temperature {C}
  14.0238679822574,                       !- July Surface Ground Temperature {C}
  16.1157611184724,                       !- August Surface Ground Temperature {C}
  16.2934789303462,                       !- September Surface Ground Temperature {C}
  14.5920754632847,                       !- October Surface Ground Temperature {C}
  11.374036348653,                        !- November Surface Ground Temperature {C}
  7.68182621661674;                       !- December Surface Ground Temperature {C}

OS:ThermalZone,
  {3c3abb99-e288-471f-9084-075ced00a38e}, !- Handle
  conditioned space,                      !- Name
  1,                                      !- Multiplier
  ,                                       !- Ceiling Height {m}
  692.06373070848,                        !- Volume {m3}
  ,                                       !- Floor Area {m2}
  ,                                       !- Zone Inside Convection Algorithm
  ,                                       !- Zone Outside Convection Algorithm
  ,                                       !- Zone Conditioning Equipment List Name
  {fb2f4b5c-aced-4bd8-9132-ebe9352524b7}, !- Zone Air Inlet Port List
  {3890e433-3efa-43bc-8519-10b3c1d77fdc}, !- Zone Air Exhaust Port List
  {7882efb3-3532-40d5-8885-d28969ca4736}, !- Zone Air Node Name
  {9fa3d761-04f7-4bb1-b4ae-970afd10ced1}, !- Zone Return Air Port List
  ,                                       !- Primary Daylighting Control Name
  ,                                       !- Fraction of Zone Controlled by Primary Daylighting Control
  ,                                       !- Secondary Daylighting Control Name
  ,                                       !- Fraction of Zone Controlled by Secondary Daylighting Control
  ,                                       !- Illuminance Map Name
  ,                                       !- Group Rendering Name
  {d11f6a2f-7b7f-4933-98f9-bcfc6dd69bb4}, !- Thermostat Name
  No;                                     !- Use Ideal Air Loads

OS:Node,
  {e1e36854-1468-4dc4-ace5-9c8107c49586}, !- Handle
  Node 1,                                 !- Name
  {7882efb3-3532-40d5-8885-d28969ca4736}, !- Inlet Port
  ;                                       !- Outlet Port

OS:Connection,
  {7882efb3-3532-40d5-8885-d28969ca4736}, !- Handle
  {3c3abb99-e288-471f-9084-075ced00a38e}, !- Source Object
  11,                                     !- Outlet Port
  {e1e36854-1468-4dc4-ace5-9c8107c49586}, !- Target Object
  2;                                      !- Inlet Port

OS:PortList,
  {fb2f4b5c-aced-4bd8-9132-ebe9352524b7}, !- Handle
  {3c3abb99-e288-471f-9084-075ced00a38e}, !- HVAC Component
  {2c9bdbd1-751d-4eae-9bb2-cc3920dfb15b}; !- Port 1

OS:PortList,
  {3890e433-3efa-43bc-8519-10b3c1d77fdc}, !- Handle
  {3c3abb99-e288-471f-9084-075ced00a38e}; !- HVAC Component

OS:PortList,
  {9fa3d761-04f7-4bb1-b4ae-970afd10ced1}, !- Handle
  {3c3abb99-e288-471f-9084-075ced00a38e}, !- HVAC Component
  {38578eab-541b-4091-9cca-b70e337bcb08}; !- Port 1

OS:Sizing:Zone,
  {27a10784-5cc2-4db4-a290-c689f0ee9365}, !- Handle
  {3c3abb99-e288-471f-9084-075ced00a38e}, !- Zone or ZoneList Name
  SupplyAirTemperature,                   !- Zone Cooling Design Supply Air Temperature Input Method
  14,                                     !- Zone Cooling Design Supply Air Temperature {C}
  11.11,                                  !- Zone Cooling Design Supply Air Temperature Difference {deltaC}
  SupplyAirTemperature,                   !- Zone Heating Design Supply Air Temperature Input Method
  40,                                     !- Zone Heating Design Supply Air Temperature {C}
  11.11,                                  !- Zone Heating Design Supply Air Temperature Difference {deltaC}
  0.0085,                                 !- Zone Cooling Design Supply Air Humidity Ratio {kg-H2O/kg-air}
  0.008,                                  !- Zone Heating Design Supply Air Humidity Ratio {kg-H2O/kg-air}
  ,                                       !- Zone Heating Sizing Factor
  ,                                       !- Zone Cooling Sizing Factor
  DesignDay,                              !- Cooling Design Air Flow Method
  ,                                       !- Cooling Design Air Flow Rate {m3/s}
  ,                                       !- Cooling Minimum Air Flow per Zone Floor Area {m3/s-m2}
  ,                                       !- Cooling Minimum Air Flow {m3/s}
  ,                                       !- Cooling Minimum Air Flow Fraction
  DesignDay,                              !- Heating Design Air Flow Method
  ,                                       !- Heating Design Air Flow Rate {m3/s}
  ,                                       !- Heating Maximum Air Flow per Zone Floor Area {m3/s-m2}
  ,                                       !- Heating Maximum Air Flow {m3/s}
  ,                                       !- Heating Maximum Air Flow Fraction
  No,                                     !- Account for Dedicated Outdoor Air System
  NeutralSupplyAir,                       !- Dedicated Outdoor Air System Control Strategy
  autosize,                               !- Dedicated Outdoor Air Low Setpoint Temperature for Design {C}
  autosize,                               !- Dedicated Outdoor Air High Setpoint Temperature for Design {C}
  Sensible Load Only No Latent Load,      !- Zone Load Sizing Method
  HumidityRatioDifference,                !- Zone Latent Cooling Design Supply Air Humidity Ratio Input Method
  ,                                       !- Zone Dehumidification Design Supply Air Humidity Ratio {kgWater/kgDryAir}
  0.005,                                  !- Zone Cooling Design Supply Air Humidity Ratio Difference {kgWater/kgDryAir}
  HumidityRatioDifference,                !- Zone Latent Heating Design Supply Air Humidity Ratio Input Method
  ,                                       !- Zone Humidification Design Supply Air Humidity Ratio {kgWater/kgDryAir}
  0.005,                                  !- Zone Humidification Design Supply Air Humidity Ratio Difference {kgWater/kgDryAir}
  ,                                       !- Zone Humidistat Dehumidification Set Point Schedule Name
  ,                                       !- Zone Humidistat Humidification Set Point Schedule Name
  ,                                       !- Design Zone Air Distribution Effectiveness in Cooling Mode
  ,                                       !- Design Zone Air Distribution Effectiveness in Heating Mode
  ,                                       !- Design Zone Secondary Recirculation Fraction {dimensionless}
  ,                                       !- Design Minimum Zone Ventilation Efficiency {dimensionless}
  Coincident;                             !- Sizing Option

OS:ZoneHVAC:EquipmentList,
  {d727b445-ae5c-4105-a340-82ff5d99b24f}, !- Handle
  Zone HVAC Equipment List 1,             !- Name
  {3c3abb99-e288-471f-9084-075ced00a38e}, !- Thermal Zone
  ,                                       !- Load Distribution Scheme
  {1d02bb5e-85d8-4f48-be4c-fe2f970e2712}, !- Zone Equipment 1
  1,                                      !- Zone Equipment Cooling Sequence 1
  1,                                      !- Zone Equipment Heating or No-Load Sequence 1
  {34890d9d-64c0-46a6-bcfe-7f301f531adc}, !- Zone Equipment Sequential Cooling Fraction Schedule Name 1
  {96da486c-f7df-47d3-9ab0-5abeee42477e}; !- Zone Equipment Sequential Heating Fraction Schedule Name 1

OS:AdditionalProperties,
  {45819e4e-1774-46b4-af36-7eee5c18d33c}, !- Handle
  {3c3abb99-e288-471f-9084-075ced00a38e}, !- Object Name
  ObjectType,                             !- Feature Name 1
  String,                                 !- Feature Data Type 1
  conditioned space;                      !- Feature Value 1

OS:Space,
  {406f960f-502c-472c-bf6a-a499f53fb2f5}, !- Handle
  conditioned space 1,                    !- Name
  ,                                       !- Space Type Name
  ,                                       !- Default Construction Set Name
  ,                                       !- Default Schedule Set Name
  ,                                       !- Direction of Relative North {deg}
  ,                                       !- X Origin {m}
  ,                                       !- Y Origin {m}
  ,                                       !- Z Origin {m}
  ,                                       !- Building Story Name
  {3c3abb99-e288-471f-9084-075ced00a38e}, !- Thermal Zone Name
  ,                                       !- Part of Total Floor Area
  ,                                       !- Design Specification Outdoor Air Object Name
  ,                                       !- Building Unit Name
  692.06373070848;                        !- Volume {m3}

OS:Schedule:Ruleset,
  {b4dbc6be-ab6e-4fd2-83c1-92de1531e976}, !- Handle
  heating setpoint,                       !- Name
  {6593760e-faeb-41df-a399-db290d785c58}, !- Schedule Type Limits Name
  {89bdf4dd-1d19-4e49-b66c-551a6746c747}; !- Default Day Schedule Name

OS:Schedule:Day,
  {89bdf4dd-1d19-4e49-b66c-551a6746c747}, !- Handle
  heating setpoint default day,           !- Name
  {6593760e-faeb-41df-a399-db290d785c58}, !- Schedule Type Limits Name
  ,                                       !- Interpolate to Timestep
  24,                                     !- Hour 1
  0,                                      !- Minute 1
  0;                                      !- Value Until Time 1

OS:Schedule:Rule,
  {9ffe78d2-45f3-4eba-ad11-fa56d279b3d4}, !- Handle
  heating setpoint allday rule,           !- Name
  {b4dbc6be-ab6e-4fd2-83c1-92de1531e976}, !- Schedule Ruleset Name
  0,                                      !- Rule Order
  {cc2f268f-a469-4151-bf39-61af9bd6b972}, !- Day Schedule Name
  Yes,                                    !- Apply Sunday
  Yes,                                    !- Apply Monday
  Yes,                                    !- Apply Tuesday
  Yes,                                    !- Apply Wednesday
  Yes,                                    !- Apply Thursday
  Yes,                                    !- Apply Friday
  Yes,                                    !- Apply Saturday
  DateRange,                              !- Date Specification Type
  1,                                      !- Start Month
  1,                                      !- Start Day
  12,                                     !- End Month
  31;                                     !- End Day

OS:Schedule:Day,
  {cc2f268f-a469-4151-bf39-61af9bd6b972}, !- Handle
  heating setpoint day,                   !- Name
  {6593760e-faeb-41df-a399-db290d785c58}, !- Schedule Type Limits Name
  ,                                       !- Interpolate to Timestep
  24,                                     !- Hour 1
  0,                                      !- Minute 1
  20;                                     !- Value Until Time 1

OS:Schedule:Ruleset,
  {235e91fd-2f33-42a5-a6c0-f261ebc8a613}, !- Handle
  cooling setpoint,                       !- Name
  {6593760e-faeb-41df-a399-db290d785c58}, !- Schedule Type Limits Name
  {ec07e9ee-69bb-4029-b66f-12e769b2dbe4}; !- Default Day Schedule Name

OS:Schedule:Day,
  {ec07e9ee-69bb-4029-b66f-12e769b2dbe4}, !- Handle
  cooling setpoint default day,           !- Name
  {6593760e-faeb-41df-a399-db290d785c58}, !- Schedule Type Limits Name
  ,                                       !- Interpolate to Timestep
  24,                                     !- Hour 1
  0,                                      !- Minute 1
  0;                                      !- Value Until Time 1

OS:Schedule:Rule,
  {62cb435c-b31e-4018-8e04-857f9224aaef}, !- Handle
  cooling setpoint allday rule,           !- Name
  {235e91fd-2f33-42a5-a6c0-f261ebc8a613}, !- Schedule Ruleset Name
  0,                                      !- Rule Order
  {0bf82d7f-0e45-4910-b9ee-5990ee03cffe}, !- Day Schedule Name
  Yes,                                    !- Apply Sunday
  Yes,                                    !- Apply Monday
  Yes,                                    !- Apply Tuesday
  Yes,                                    !- Apply Wednesday
  Yes,                                    !- Apply Thursday
  Yes,                                    !- Apply Friday
  Yes,                                    !- Apply Saturday
  DateRange,                              !- Date Specification Type
  1,                                      !- Start Month
  1,                                      !- Start Day
  12,                                     !- End Month
  31;                                     !- End Day

OS:Schedule:Day,
  {0bf82d7f-0e45-4910-b9ee-5990ee03cffe}, !- Handle
  cooling setpoint day,                   !- Name
  {6593760e-faeb-41df-a399-db290d785c58}, !- Schedule Type Limits Name
  ,                                       !- Interpolate to Timestep
  24,                                     !- Hour 1
  0,                                      !- Minute 1
  25.5555555555556;                       !- Value Until Time 1

OS:ThermostatSetpoint:DualSetpoint,
  {d11f6a2f-7b7f-4933-98f9-bcfc6dd69bb4}, !- Handle
  conditioned space temperature setpoint, !- Name
  {b4dbc6be-ab6e-4fd2-83c1-92de1531e976}, !- Heating Setpoint Temperature Schedule Name
  {235e91fd-2f33-42a5-a6c0-f261ebc8a613}, !- Cooling Setpoint Temperature Schedule Name
  0;                                      !- Temperature Difference Between Cutout And Setpoint {deltaC}

OS:ScheduleTypeLimits,
  {6593760e-faeb-41df-a399-db290d785c58}, !- Handle
  Temperature,                            !- Name
  ,                                       !- Lower Limit Value
  ,                                       !- Upper Limit Value
  Continuous,                             !- Numeric Type
  Temperature;                            !- Unit Type

OS:Surface,
  {512a62fd-1b5c-4b19-adbc-17a6ea90ed29}, !- Handle
  Roof1,                                  !- Name
  RoofCeiling,                            !- Surface Type
  {a0d47e1f-8315-4374-b7e9-398ea7a83dc3}, !- Construction Name
  {e2ae1546-7874-47a9-a148-dc2e239f4111}, !- Space Name
  Outdoors,                               !- Outside Boundary Condition
  ,                                       !- Outside Boundary Condition Object
  SunExposed,                             !- Sun Exposure
  WindExposed,                            !- Wind Exposure
  ,                                       !- View Factor to Ground
  ,                                       !- Number of Vertices
  -26.9347048849634, 58.0557891618865, 2.4384, !- X,Y,Z Vertex 1 {m}
  -26.9347048849634, 46.7895631136661, 8.0715130241102, !- X,Y,Z Vertex 2 {m}
  -14.3386812381136, 46.7895631136661, 8.0715130241102, !- X,Y,Z Vertex 3 {m}
  -14.3386812381136, 58.0557891618865, 2.4384; !- X,Y,Z Vertex 4 {m}

OS:AdditionalProperties,
  {35bbd3e5-809a-4bb3-a0ae-13b1b4ce1bca}, !- Handle
  {512a62fd-1b5c-4b19-adbc-17a6ea90ed29}, !- Object Name
  Length,                                 !- Feature Name 1
  Double,                                 !- Feature Data Type 1
  41.325536899113608,                     !- Feature Value 1
  Width,                                  !- Feature Name 2
  Double,                                 !- Feature Data Type 2
  41.325536899113601,                     !- Feature Value 2
  Azimuth,                                !- Feature Name 3
  Integer,                                !- Feature Data Type 3
  0,                                      !- Feature Value 3
  Tilt,                                   !- Feature Name 4
  Double,                                 !- Feature Data Type 4
  0.5,                                    !- Feature Value 4
  SurfaceType,                            !- Feature Name 5
  String,                                 !- Feature Data Type 5
  Roof;                                   !- Feature Value 5

OS:ThermalZone,
  {34df668d-f316-450a-b6c3-1090379810b1}, !- Handle
  attic - vented,                         !- Name
  1,                                      !- Multiplier
  ,                                       !- Ceiling Height {m}
  356.389957095237,                       !- Volume {m3}
  ,                                       !- Floor Area {m2}
  ,                                       !- Zone Inside Convection Algorithm
  ,                                       !- Zone Outside Convection Algorithm
  ,                                       !- Zone Conditioning Equipment List Name
  {a13ccff6-8f13-406e-ad07-999fcdd0d133}, !- Zone Air Inlet Port List
  {c26f6767-ad0e-4737-9562-bf4a1e9de645}, !- Zone Air Exhaust Port List
  {e19aa563-ab25-46c3-b83d-380c4cad2e5a}, !- Zone Air Node Name
  {621590c0-68e3-4c17-ae10-ee6696a66245}, !- Zone Return Air Port List
  ,                                       !- Primary Daylighting Control Name
  ,                                       !- Fraction of Zone Controlled by Primary Daylighting Control
  ,                                       !- Secondary Daylighting Control Name
  ,                                       !- Fraction of Zone Controlled by Secondary Daylighting Control
  ,                                       !- Illuminance Map Name
  ,                                       !- Group Rendering Name
  ,                                       !- Thermostat Name
  No;                                     !- Use Ideal Air Loads

OS:Node,
  {94679dd2-7a18-454e-b673-e4d12f1565b6}, !- Handle
  Node 2,                                 !- Name
  {e19aa563-ab25-46c3-b83d-380c4cad2e5a}, !- Inlet Port
  ;                                       !- Outlet Port

OS:Connection,
  {e19aa563-ab25-46c3-b83d-380c4cad2e5a}, !- Handle
  {34df668d-f316-450a-b6c3-1090379810b1}, !- Source Object
  11,                                     !- Outlet Port
  {94679dd2-7a18-454e-b673-e4d12f1565b6}, !- Target Object
  2;                                      !- Inlet Port

OS:PortList,
  {a13ccff6-8f13-406e-ad07-999fcdd0d133}, !- Handle
  {34df668d-f316-450a-b6c3-1090379810b1}; !- HVAC Component

OS:PortList,
  {c26f6767-ad0e-4737-9562-bf4a1e9de645}, !- Handle
  {34df668d-f316-450a-b6c3-1090379810b1}; !- HVAC Component

OS:PortList,
  {621590c0-68e3-4c17-ae10-ee6696a66245}, !- Handle
  {34df668d-f316-450a-b6c3-1090379810b1}; !- HVAC Component

OS:Sizing:Zone,
  {9f693e2b-583b-4ce3-a663-95efcd6546bc}, !- Handle
  {34df668d-f316-450a-b6c3-1090379810b1}, !- Zone or ZoneList Name
  SupplyAirTemperature,                   !- Zone Cooling Design Supply Air Temperature Input Method
  14,                                     !- Zone Cooling Design Supply Air Temperature {C}
  11.11,                                  !- Zone Cooling Design Supply Air Temperature Difference {deltaC}
  SupplyAirTemperature,                   !- Zone Heating Design Supply Air Temperature Input Method
  40,                                     !- Zone Heating Design Supply Air Temperature {C}
  11.11,                                  !- Zone Heating Design Supply Air Temperature Difference {deltaC}
  0.0085,                                 !- Zone Cooling Design Supply Air Humidity Ratio {kg-H2O/kg-air}
  0.008,                                  !- Zone Heating Design Supply Air Humidity Ratio {kg-H2O/kg-air}
  ,                                       !- Zone Heating Sizing Factor
  ,                                       !- Zone Cooling Sizing Factor
  DesignDay,                              !- Cooling Design Air Flow Method
  ,                                       !- Cooling Design Air Flow Rate {m3/s}
  ,                                       !- Cooling Minimum Air Flow per Zone Floor Area {m3/s-m2}
  ,                                       !- Cooling Minimum Air Flow {m3/s}
  ,                                       !- Cooling Minimum Air Flow Fraction
  DesignDay,                              !- Heating Design Air Flow Method
  ,                                       !- Heating Design Air Flow Rate {m3/s}
  ,                                       !- Heating Maximum Air Flow per Zone Floor Area {m3/s-m2}
  ,                                       !- Heating Maximum Air Flow {m3/s}
  ,                                       !- Heating Maximum Air Flow Fraction
  No,                                     !- Account for Dedicated Outdoor Air System
  NeutralSupplyAir,                       !- Dedicated Outdoor Air System Control Strategy
  autosize,                               !- Dedicated Outdoor Air Low Setpoint Temperature for Design {C}
  autosize,                               !- Dedicated Outdoor Air High Setpoint Temperature for Design {C}
  Sensible Load Only No Latent Load,      !- Zone Load Sizing Method
  HumidityRatioDifference,                !- Zone Latent Cooling Design Supply Air Humidity Ratio Input Method
  ,                                       !- Zone Dehumidification Design Supply Air Humidity Ratio {kgWater/kgDryAir}
  0.005,                                  !- Zone Cooling Design Supply Air Humidity Ratio Difference {kgWater/kgDryAir}
  HumidityRatioDifference,                !- Zone Latent Heating Design Supply Air Humidity Ratio Input Method
  ,                                       !- Zone Humidification Design Supply Air Humidity Ratio {kgWater/kgDryAir}
  0.005,                                  !- Zone Humidification Design Supply Air Humidity Ratio Difference {kgWater/kgDryAir}
  ,                                       !- Zone Humidistat Dehumidification Set Point Schedule Name
  ,                                       !- Zone Humidistat Humidification Set Point Schedule Name
  ,                                       !- Design Zone Air Distribution Effectiveness in Cooling Mode
  ,                                       !- Design Zone Air Distribution Effectiveness in Heating Mode
  ,                                       !- Design Zone Secondary Recirculation Fraction {dimensionless}
  ,                                       !- Design Minimum Zone Ventilation Efficiency {dimensionless}
  Coincident;                             !- Sizing Option

OS:ZoneHVAC:EquipmentList,
  {549d22e9-9b5f-45f7-baa8-0cfeab293db4}, !- Handle
  Zone HVAC Equipment List 2,             !- Name
  {34df668d-f316-450a-b6c3-1090379810b1}; !- Thermal Zone

OS:AdditionalProperties,
  {c522a594-93a1-4e27-bd2e-22db15852fc6}, !- Handle
  {34df668d-f316-450a-b6c3-1090379810b1}, !- Object Name
  ObjectType,                             !- Feature Name 1
  String,                                 !- Feature Data Type 1
  attic - vented;                         !- Feature Value 1

OS:Space,
  {e2ae1546-7874-47a9-a148-dc2e239f4111}, !- Handle
  attic - vented 1,                       !- Name
  ,                                       !- Space Type Name
  ,                                       !- Default Construction Set Name
  ,                                       !- Default Schedule Set Name
  ,                                       !- Direction of Relative North {deg}
  ,                                       !- X Origin {m}
  ,                                       !- Y Origin {m}
  ,                                       !- Z Origin {m}
  ,                                       !- Building Story Name
  {34df668d-f316-450a-b6c3-1090379810b1}, !- Thermal Zone Name
  ,                                       !- Part of Total Floor Area
  ,                                       !- Design Specification Outdoor Air Object Name
  ,                                       !- Building Unit Name
  356.389957095237;                       !- Volume {m3}

OS:Material,
  {ae5141a3-c63e-435a-ae10-67fe35d2414d}, !- Handle
  asphalt or fiberglass shingles,         !- Name
  Rough,                                  !- Roughness
  0.00635,                                !- Thickness {m}
  0.162714,                               !- Conductivity {W/m-K}
  1121.4,                                 !- Density {kg/m3}
  1465.45,                                !- Specific Heat {J/kg-K}
  0.9,                                    !- Thermal Absorptance
  0.85,                                   !- Solar Absorptance