
OS:Version,
  {6498e1f1-6fd5-42b1-8e79-fc7e29858fb0}, !- Handle
  3.9.0;                                  !- Version Identifier

OS:SimulationControl,
  {41c293e9-3671-4701-962c-7e07858489d1}, !- Handle
  ,                                       !- Do Zone Sizing Calculation
  ,                                       !- Do System Sizing Calculation
  ,                                       !- Do Plant Sizing Calculation
  No;                                     !- Run Simulation for Sizing Periods

OS:Timestep,
  {ee9117ba-c3c4-4648-a8d5-cbe3e5c9ed4d}, !- Handle
  1;                                      !- Number of Timesteps per Hour

OS:ShadowCalculation,
  {06d5e1f4-b2f9-45ed-8a76-308e9a090382}, !- Handle
  PolygonClipping,                        !- Shading Calculation Method
  ,                                       !- Shading Calculation Update Frequency Method
  20,                                     !- Shading Calculation Update Frequency
  200,                                    !- Maximum Figures in Shadow Overlap Calculations
  ,                                       !- Polygon Clipping Algorithm
  512,                                    !- Pixel Counting Resolution
  ,                                       !- Sky Diffuse Modeling Algorithm
  No,                                     !- Output External Shading Calculation Results
  No,                                     !- Disable Self-Shading Within Shading Zone Groups
  No;                                     !- Disable Self-Shading From Shading Zone Groups to Other Zones

OS:SurfaceConvectionAlgorithm:Outside,
  {b12b8c8e-9e43-4258-b9a1-a93d62ca6e57}, !- Handle
  DOE-2;                                  !- Algorithm

OS:SurfaceConvectionAlgorithm:Inside,
  {79493f21-23ca-4962-b2b3-d3da91fbe681}, !- Handle
  TARP;                                   !- Algorithm

OS:ZoneCapacitanceMultiplier:ResearchSpecial,
  {3e985263-c727-4c13-9003-2e8c9714daa4}, !- Handle
  7,                                      !- Temperature Capacity Multiplier
  15,                                     !- Humidity Capacity Multiplier
  ;                                       !- Carbon Dioxide Capacity Multiplier

OS:ConvergenceLimits,
  {6972b422-74ad-49fd-844d-280b691bcc9c}, !- Handle
  0;                                      !- Minimum System Timestep {minutes}

OS:RunPeriod,
  {1339fde3-ddb4-4774-ae7d-2e6bc2b24d4d}, !- Handle
  Run Period 1,                           !- Name
  1,                                      !- Begin Month
  1,                                      !- Begin Day of Month
  12,                                     !- End Month
  31,                                     !- End Day of Month
  ,                                       !- Use Weather File Holidays and Special Days
  ,                                       !- Use Weather File Daylight Saving Period
  ,                                       !- Apply Weekend Holiday Rule
  ,                                       !- Use Weather File Rain Indicators
  ,                                       !- Use Weather File Snow Indicators
  ;                                       !- Number of Times Runperiod to be Repeated

OS:PerformancePrecisionTradeoffs,
  {25f2d284-04d1-4fc6-9680-f20953a461ec}, !- Handle
  ,                                       !- Use Coil Direct Solutions
  CarrollMRT;                             !- Zone Radiant Exchange Algorithm

OS:WeatherFile,
  {66866c56-593b-46a8-a430-7186b71a271a}, !- Handle
  Buffalo Niagara Intl Ap,                !- City
  NY,                                     !- State Province Region
  USA,                                    !- Country
  TMY3,                                   !- Data Source
  725280,                                 !- WMO Number
  42.93,                                  !- Latitude {deg}
  -78.73,                                 !- Longitude {deg}
  -5,                                     !- Time Zone {hr}
  215,                                    !- Elevation {m}
  /Users/nmoore/github/urbanopt-example-geojson-project/example_project/weather/USA_NY_Buffalo-Greater.Buffalo.Intl.AP.725280_TMY3.epw, !- Url
  6B50E0FF,                               !- Checksum
  ,                                       !- Start Date Actual Year
  Sunday;                                 !- Start Day of Week

OS:YearDescription,
  {70b8b02b-2d8c-40d8-8b08-0e19f452f8d1}, !- Handle
  2007,                                   !- Calendar Year
  ,                                       !- Day of Week for Start Day
  ;                                       !- Is Leap Year

OS:Site,
  {796336c3-8ae3-4d56-b0a7-7f7d8387392a}, !- Handle
  Buffalo Niagara Intl Ap_NY,             !- Name
  42.93,                                  !- Latitude {deg}
  -78.73,                                 !- Longitude {deg}
  -5,                                     !- Time Zone {hr}
  215,                                    !- Elevation {m}
  Suburbs,                                !- Terrain
  Yes;                                    !- Keep Site Location Information

OS:RunPeriodControl:DaylightSavingTime,
  {c9e85ab5-cc3f-41bd-a654-3b8bd25f75d1}, !- Handle
  Mar 12,                                 !- Start Date
  Nov 5;                                  !- End Date

OS:Site:GroundTemperature:Shallow,
  {3d6f7000-6379-4f92-b6b0-9923803222ae}, !- Handle
  4.30207395723828,                       !- January Surface Ground Temperature {C}
  2.29327249652502,                       !- February Surface Ground Temperature {C}
  2.13240047156047,                       !- March Surface Ground Temperature {C}
  3.08567940719286,                       !- April Surface Ground Temperature {C}
  6.91256312497526,                       !- May Surface Ground Temperature {C}
  10.7216195949507,                       !- June Surface Ground Temperature {C}
  14.0238679822574,                       !- July Surface Ground Temperature {C}
  16.1157611184724,                       !- August Surface Ground Temperature {C}
  16.2934789303462,                       !- September Surface Ground Temperature {C}
  14.5920754632847,                       !- October Surface Ground Temperature {C}
  11.374036348653,                        !- November Surface Ground Temperature {C}
  7.68182621661674;                       !- December Surface Ground Temperature {C}

OS:ThermalZone,
  {7f4ef532-d156-4e9f-99e8-dc4a6b78dfb7}, !- Handle
  conditioned space,                      !- Name
  1,                                      !- Multiplier
  ,                                       !- Ceiling Height {m}
  692.06373070848,                        !- Volume {m3}
  ,                                       !- Floor Area {m2}
  ,                                       !- Zone Inside Convection Algorithm
  ,                                       !- Zone Outside Convection Algorithm
  ,                                       !- Zone Conditioning Equipment List Name
  {06ff02f1-5911-411d-89d1-5c36d83cbead}, !- Zone Air Inlet Port List
  {409cad6f-6728-4f38-961d-017ee05e5696}, !- Zone Air Exhaust Port List
  {dbd8909e-4633-4d3f-b739-485cfabf0255}, !- Zone Air Node Name
  {c8fbe2f7-ebd8-4abb-9c2e-5ad8732b121e}, !- Zone Return Air Port List
  ,                                       !- Primary Daylighting Control Name
  ,                                       !- Fraction of Zone Controlled by Primary Daylighting Control
  ,                                       !- Secondary Daylighting Control Name
  ,                                       !- Fraction of Zone Controlled by Secondary Daylighting Control
  ,                                       !- Illuminance Map Name
  ,                                       !- Group Rendering Name
  {cbf81bee-29a9-44b0-9804-2230a8152b11}, !- Thermostat Name
  No;                                     !- Use Ideal Air Loads

OS:Node,
  {0b75cda5-2033-45a7-adce-9ac41c48aa9e}, !- Handle
  Node 1,                                 !- Name
  {dbd8909e-4633-4d3f-b739-485cfabf0255}, !- Inlet Port
  ;                                       !- Outlet Port

OS:Connection,
  {dbd8909e-4633-4d3f-b739-485cfabf0255}, !- Handle
  {7f4ef532-d156-4e9f-99e8-dc4a6b78dfb7}, !- Source Object
  11,                                     !- Outlet Port
  {0b75cda5-2033-45a7-adce-9ac41c48aa9e}, !- Target Object
  2;                                      !- Inlet Port

OS:PortList,
  {06ff02f1-5911-411d-89d1-5c36d83cbead}, !- Handle
  {7f4ef532-d156-4e9f-99e8-dc4a6b78dfb7}, !- HVAC Component
  {5a1ba517-12b7-4f93-a434-c310a7117bf7}; !- Port 1

OS:PortList,
  {409cad6f-6728-4f38-961d-017ee05e5696}, !- Handle
  {7f4ef532-d156-4e9f-99e8-dc4a6b78dfb7}; !- HVAC Component

OS:PortList,
  {c8fbe2f7-ebd8-4abb-9c2e-5ad8732b121e}, !- Handle
  {7f4ef532-d156-4e9f-99e8-dc4a6b78dfb7}, !- HVAC Component
  {91d8770a-92e8-4267-82cf-a8d02aabddfe}; !- Port 1

OS:Sizing:Zone,
  {3cf2bedf-5313-4157-b6aa-4e766531472e}, !- Handle
  {7f4ef532-d156-4e9f-99e8-dc4a6b78dfb7}, !- Zone or ZoneList Name
  SupplyAirTemperature,                   !- Zone Cooling Design Supply Air Temperature Input Method
  14,                                     !- Zone Cooling Design Supply Air Temperature {C}
  11.11,                                  !- Zone Cooling Design Supply Air Temperature Difference {deltaC}
  SupplyAirTemperature,                   !- Zone Heating Design Supply Air Temperature Input Method
  40,                                     !- Zone Heating Design Supply Air Temperature {C}
  11.11,                                  !- Zone Heating Design Supply Air Temperature Difference {deltaC}
  0.0085,                                 !- Zone Cooling Design Supply Air Humidity Ratio {kg-H2O/kg-air}
  0.008,                                  !- Zone Heating Design Supply Air Humidity Ratio {kg-H2O/kg-air}
  ,                                       !- Zone Heating Sizing Factor
  ,                                       !- Zone Cooling Sizing Factor
  DesignDay,                              !- Cooling Design Air Flow Method
  ,                                       !- Cooling Design Air Flow Rate {m3/s}
  ,                                       !- Cooling Minimum Air Flow per Zone Floor Area {m3/s-m2}
  ,                                       !- Cooling Minimum Air Flow {m3/s}
  ,                                       !- Cooling Minimum Air Flow Fraction
  DesignDay,                              !- Heating Design Air Flow Method
  ,                                       !- Heating Design Air Flow Rate {m3/s}
  ,                                       !- Heating Maximum Air Flow per Zone Floor Area {m3/s-m2}
  ,                                       !- Heating Maximum Air Flow {m3/s}
  ,                                       !- Heating Maximum Air Flow Fraction
  No,                                     !- Account for Dedicated Outdoor Air System
  NeutralSupplyAir,                       !- Dedicated Outdoor Air System Control Strategy
  autosize,                               !- Dedicated Outdoor Air Low Setpoint Temperature for Design {C}
  autosize,                               !- Dedicated Outdoor Air High Setpoint Temperature for Design {C}
  Sensible Load Only No Latent Load,      !- Zone Load Sizing Method
  HumidityRatioDifference,                !- Zone Latent Cooling Design Supply Air Humidity Ratio Input Method
  ,                                       !- Zone Dehumidification Design Supply Air Humidity Ratio {kgWater/kgDryAir}
  0.005,                                  !- Zone Cooling Design Supply Air Humidity Ratio Difference {kgWater/kgDryAir}
  HumidityRatioDifference,                !- Zone Latent Heating Design Supply Air Humidity Ratio Input Method
  ,                                       !- Zone Humidification Design Supply Air Humidity Ratio {kgWater/kgDryAir}
  0.005,                                  !- Zone Humidification Design Supply Air Humidity Ratio Difference {kgWater/kgDryAir}
  ,                                       !- Zone Humidistat Dehumidification Set Point Schedule Name
  ,                                       !- Zone Humidistat Humidification Set Point Schedule Name
  ,                                       !- Design Zone Air Distribution Effectiveness in Cooling Mode
  ,                                       !- Design Zone Air Distribution Effectiveness in Heating Mode
  ,                                       !- Design Zone Secondary Recirculation Fraction {dimensionless}
  ,                                       !- Design Minimum Zone Ventilation Efficiency {dimensionless}
  Coincident;                             !- Sizing Option

OS:ZoneHVAC:EquipmentList,
  {bfde577a-65ec-4c88-9371-87208d76a37a}, !- Handle
  Zone HVAC Equipment List 1,             !- Name
  {7f4ef532-d156-4e9f-99e8-dc4a6b78dfb7}, !- Thermal Zone
  ,                                       !- Load Distribution Scheme
  {f74bbb96-2537-42c3-911a-049411d88fca}, !- Zone Equipment 1
  1,                                      !- Zone Equipment Cooling Sequence 1
  1,                                      !- Zone Equipment Heating or No-Load Sequence 1
  {d02d2178-5cbc-46de-8885-cae3e77cbaa2}, !- Zone Equipment Sequential Cooling Fraction Schedule Name 1
  {e6a85b56-0936-4ba3-b5ab-e6fd02b6e1d3}; !- Zone Equipment Sequential Heating Fraction Schedule Name 1

OS:AdditionalProperties,
  {18a7da43-7395-482a-8078-99bf1a1858ce}, !- Handle
  {7f4ef532-d156-4e9f-99e8-dc4a6b78dfb7}, !- Object Name
  ObjectType,                             !- Feature Name 1
  String,                                 !- Feature Data Type 1
  conditioned space;                      !- Feature Value 1

OS:Space,
  {cb052219-e0c6-43a2-b7eb-735914a309d4}, !- Handle
  conditioned space 1,                    !- Name
  ,                                       !- Space Type Name
  ,                                       !- Default Construction Set Name
  ,                                       !- Default Schedule Set Name
  ,                                       !- Direction of Relative North {deg}
  ,                                       !- X Origin {m}
  ,                                       !- Y Origin {m}
  ,                                       !- Z Origin {m}
  ,                                       !- Building Story Name
  {7f4ef532-d156-4e9f-99e8-dc4a6b78dfb7}, !- Thermal Zone Name
  ,                                       !- Part of Total Floor Area
  ,                                       !- Design Specification Outdoor Air Object Name
  ,                                       !- Building Unit Name
  692.06373070848;                        !- Volume {m3}

OS:Schedule:Ruleset,
  {dfbc9682-32b1-421e-b97f-1041298bba16}, !- Handle
  heating setpoint,                       !- Name
  {48003f76-c1f2-4621-a517-a75e1503da1e}, !- Schedule Type Limits Name
  {74243dc4-5a1d-4ec3-840c-31fb7301b5ea}; !- Default Day Schedule Name

OS:Schedule:Day,
  {74243dc4-5a1d-4ec3-840c-31fb7301b5ea}, !- Handle
  heating setpoint default day,           !- Name
  {48003f76-c1f2-4621-a517-a75e1503da1e}, !- Schedule Type Limits Name
  ,                                       !- Interpolate to Timestep
  24,                                     !- Hour 1
  0,                                      !- Minute 1
  0;                                      !- Value Until Time 1

OS:Schedule:Rule,
  {21273a9f-9a7d-46d2-94e4-27a770f3ca40}, !- Handle
  heating setpoint allday rule,           !- Name
  {dfbc9682-32b1-421e-b97f-1041298bba16}, !- Schedule Ruleset Name
  0,                                      !- Rule Order
  {639d682b-6290-4947-b12d-766e66681c97}, !- Day Schedule Name
  Yes,                                    !- Apply Sunday
  Yes,                                    !- Apply Monday
  Yes,                                    !- Apply Tuesday
  Yes,                                    !- Apply Wednesday
  Yes,                                    !- Apply Thursday
  Yes,                                    !- Apply Friday
  Yes,                                    !- Apply Saturday
  DateRange,                              !- Date Specification Type
  1,                                      !- Start Month
  1,                                      !- Start Day
  12,                                     !- End Month
  31;                                     !- End Day

OS:Schedule:Day,
  {639d682b-6290-4947-b12d-766e66681c97}, !- Handle
  heating setpoint day,                   !- Name
  {48003f76-c1f2-4621-a517-a75e1503da1e}, !- Schedule Type Limits Name
  ,                                       !- Interpolate to Timestep
  5,                                      !- Hour 1
  0,                                      !- Minute 1
  19.4444444444444,                       !- Value Until Time 1
  20,                                     !- Hour 2
  0,                                      !- Minute 2
  21.1111111111111,                       !- Value Until Time 2
  24,                                     !- Hour 3
  0,                                      !- Minute 3
  19.4444444444444;                       !- Value Until Time 3

OS:Schedule:Ruleset,
  {981fea93-dbbb-4d43-94be-86e68b8f0152}, !- Handle
  cooling setpoint,                       !- Name
  {48003f76-c1f2-4621-a517-a75e1503da1e}, !- Schedule Type Limits Name
  {63afd2f2-e894-4ac5-b1c7-3fc6d335fc97}; !- Default Day Schedule Name

OS:Schedule:Day,
  {63afd2f2-e894-4ac5-b1c7-3fc6d335fc97}, !- Handle
  cooling setpoint default day,           !- Name
  {48003f76-c1f2-4621-a517-a75e1503da1e}, !- Schedule Type Limits Name
  ,                                       !- Interpolate to Timestep
  24,                                     !- Hour 1
  0,                                      !- Minute 1
  0;                                      !- Value Until Time 1

OS:Schedule:Rule,
  {1e146319-e15b-420b-b094-3783c63d6df0}, !- Handle
  cooling setpoint allday rule,           !- Name
  {981fea93-dbbb-4d43-94be-86e68b8f0152}, !- Schedule Ruleset Name
  0,                                      !- Rule Order
  {bf99c0b0-5363-4a2b-b7c8-4ac643423695}, !- Day Schedule Name
  Yes,                                    !- Apply Sunday
  Yes,                                    !- Apply Monday
  Yes,                                    !- Apply Tuesday
  Yes,                                    !- Apply Wednesday
  Yes,                                    !- Apply Thursday
  Yes,                                    !- Apply Friday
  Yes,                                    !- Apply Saturday
  DateRange,                              !- Date Specification Type
  1,                                      !- Start Month
  1,                                      !- Start Day
  12,                                     !- End Month
  31;                                     !- End Day

OS:Schedule:Day,
  {bf99c0b0-5363-4a2b-b7c8-4ac643423695}, !- Handle
  cooling setpoint day,                   !- Name
  {48003f76-c1f2-4621-a517-a75e1503da1e}, !- Schedule Type Limits Name
  ,                                       !- Interpolate to Timestep
  24,                                     !- Hour 1
  0,                                      !- Minute 1
  24.4444444444444;                       !- Value Until Time 1

OS:ThermostatSetpoint:DualSetpoint,
  {cbf81bee-29a9-44b0-9804-2230a8152b11}, !- Handle
  conditioned space temperature setpoint, !- Name
  {dfbc9682-32b1-421e-b97f-1041298bba16}, !- Heating Setpoint Temperature Schedule Name
  {981fea93-dbbb-4d43-94be-86e68b8f0152}, !- Cooling Setpoint Temperature Schedule Name
  0;                                      !- Temperature Difference Between Cutout And Setpoint {deltaC}

OS:ScheduleTypeLimits,
  {48003f76-c1f2-4621-a517-a75e1503da1e}, !- Handle
  Temperature,                            !- Name
  ,                                       !- Lower Limit Value
  ,                                       !- Upper Limit Value
  Continuous,                             !- Numeric Type
  Temperature;                            !- Unit Type

OS:Surface,
  {8de776f3-fe25-4e73-ace6-a4199a35f611}, !- Handle
  Roof1,                                  !- Name
  RoofCeiling,                            !- Surface Type
  {44cecb58-3fc8-4c05-bedc-58184c310f17}, !- Construction Name
  {b7466ddd-86ac-4f8c-a242-95144dacb42c}, !- Space Name
  Outdoors,                               !- Outside Boundary Condition
  ,                                       !- Outside Boundary Condition Object
  SunExposed,                             !- Sun Exposure
  WindExposed,                            !- Wind Exposure
  ,                                       !- View Factor to Ground
  ,                                       !- Number of Vertices
  -35.7319713300657, -15.7347170984867, 5.1816, !- X,Y,Z Vertex 1 {m}
  -28.9278958680503, -15.7347170984867, 8.5836377310077, !- X,Y,Z Vertex 2 {m}
  -28.9278958680503, -8.12752946993435, 8.5836377310077, !- X,Y,Z Vertex 3 {m}
  -35.7319713300657, -8.12752946993435, 5.1816; !- X,Y,Z Vertex 4 {m}

OS:AdditionalProperties,
  {8b190e48-3d69-42e5-b5c8-3d793ff98212}, !- Handle
  {8de776f3-fe25-4e73-ace6-a4199a35f611}, !- Object Name
  Length,                                 !- Feature Name 1
  Double,                                 !- Feature Data Type 1
  24.957964660604841,                     !- Feature Value 1
  Width,                                  !- Feature Name 2
  Double,                                 !- Feature Data Type 2
  24.957964660604837,                     !- Feature Value 2
  Azimuth,                                !- Feature Name 3
  Integer,                                !- Feature Data Type 3
  270,                                    !- Feature Value 3
  Tilt,                                   !- Feature Name 4
  Double,                                 !- Feature Data Type 4
  0.5,                                    !- Feature Value 4
  SurfaceType,                            !- Feature Name 5
  String,                                 !- Feature Data Type 5
  Roof;                                   !- Feature Value 5

OS:ThermalZone,
  {2c37e0b4-f331-4d0f-aca1-7d1fcd1e1360}, !- Handle
  attic - vented,                         !- Name
  1,                                      !- Multiplier
  ,                                       !- Ceiling Height {m}
  110.833241864513,                       !- Volume {m3}
  ,                                       !- Floor Area {m2}
  ,                                       !- Zone Inside Convection Algorithm
  ,                                       !- Zone Outside Convection Algorithm
  ,                                       !- Zone Conditioning Equipment List Name
  {6b87156e-f959-4ea9-928c-024258478583}, !- Zone Air Inlet Port List
  {4b53f1c7-e504-4cbf-991e-cbfe59ce3630}, !- Zone Air Exhaust Port List
  {f8b15b44-2a82-4414-b103-c543b8d4364e}, !- Zone Air Node Name
  {dfd999e7-12f8-4b57-8d0f-974af9dc53ef}, !- Zone Return Air Port List
  ,                                       !- Primary Daylighting Control Name
  ,                                       !- Fraction of Zone Controlled by Primary Daylighting Control
  ,                                       !- Secondary Daylighting Control Name
  ,                                       !- Fraction of Zone Controlled by Secondary Daylighting Control
  ,                                       !- Illuminance Map Name
  ,                                       !- Group Rendering Name
  ,                                       !- Thermostat Name
  No;                                     !- Use Ideal Air Loads

OS:Node,
  {40b46387-c270-49ae-bbe2-cd9a7d0e6aca}, !- Handle
  Node 2,                                 !- Name
  {f8b15b44-2a82-4414-b103-c543b8d4364e}, !- Inlet Port
  ;                                       !- Outlet Port

OS:Connection,
  {f8b15b44-2a82-4414-b103-c543b8d4364e}, !- Handle
  {2c37e0b4-f331-4d0f-aca1-7d1fcd1e1360}, !- Source Object
  11,                                     !- Outlet Port
  {40b46387-c270-49ae-bbe2-cd9a7d0e6aca}, !- Target Object
  2;                                      !- Inlet Port

OS:PortList,
  {6b87156e-f959-4ea9-928c-024258478583}, !- Handle
  {2c37e0b4-f331-4d0f-aca1-7d1fcd1e1360}; !- HVAC Component

OS:PortList,
  {4b53f1c7-e504-4cbf-991e-cbfe59ce3630}, !- Handle
  {2c37e0b4-f331-4d0f-aca1-7d1fcd1e1360}; !- HVAC Component

OS:PortList,
  {dfd999e7-12f8-4b57-8d0f-974af9dc53ef}, !- Handle
  {2c37e0b4-f331-4d0f-aca1-7d1fcd1e1360}; !- HVAC Component

OS:Sizing:Zone,
  {7c191499-e63c-48a9-bc36-4f961de3034a}, !- Handle
  {2c37e0b4-f331-4d0f-aca1-7d1fcd1e1360}, !- Zone or ZoneList Name
  SupplyAirTemperature,                   !- Zone Cooling Design Supply Air Temperature Input Method
  14,                                     !- Zone Cooling Design Supply Air Temperature {C}
  11.11,                                  !- Zone Cooling Design Supply Air Temperature Difference {deltaC}
  SupplyAirTemperature,                   !- Zone Heating Design Supply Air Temperature Input Method
  40,                                     !- Zone Heating Design Supply Air Temperature {C}
  11.11,                                  !- Zone Heating Design Supply Air Temperature Difference {deltaC}
  0.0085,                                 !- Zone Cooling Design Supply Air Humidity Ratio {kg-H2O/kg-air}
  0.008,                                  !- Zone Heating Design Supply Air Humidity Ratio {kg-H2O/kg-air}
  ,                                       !- Zone Heating Sizing Factor
  ,                                       !- Zone Cooling Sizing Factor
  DesignDay,                              !- Cooling Design Air Flow Method
  ,                                       !- Cooling Design Air Flow Rate {m3/s}
  ,                                       !- Cooling Minimum Air Flow per Zone Floor Area {m3/s-m2}
  ,                                       !- Cooling Minimum Air Flow {m3/s}
  ,                                       !- Cooling Minimum Air Flow Fraction
  DesignDay,                              !- Heating Design Air Flow Method
  ,                                       !- Heating Design Air Flow Rate {m3/s}
  ,                                       !- Heating Maximum Air Flow per Zone Floor Area {m3/s-m2}
  ,                                       !- Heating Maximum Air Flow {m3/s}
  ,                                       !- Heating Maximum Air Flow Fraction
  No,                                     !- Account for Dedicated Outdoor Air System
  NeutralSupplyAir,                       !- Dedicated Outdoor Air System Control Strategy
  autosize,                               !- Dedicated Outdoor Air Low Setpoint Temperature for Design {C}
  autosize,                               !- Dedicated Outdoor Air High Setpoint Temperature for Design {C}
  Sensible Load Only No Latent Load,      !- Zone Load Sizing Method
  HumidityRatioDifference,                !- Zone Latent Cooling Design Supply Air Humidity Ratio Input Method
  ,                                       !- Zone Dehumidification Design Supply Air Humidity Ratio {kgWater/kgDryAir}
  0.005,                                  !- Zone Cooling Design Supply Air Humidity Ratio Difference {kgWater/kgDryAir}
  HumidityRatioDifference,                !- Zone Latent Heating Design Supply Air Humidity Ratio Input Method
  ,                                       !- Zone Humidification Design Supply Air Humidity Ratio {kgWater/kgDryAir}
  0.005,                                  !- Zone Humidification Design Supply Air Humidity Ratio Difference {kgWater/kgDryAir}
  ,                                       !- Zone Humidistat Dehumidification Set Point Schedule Name
  ,                                       !- Zone Humidistat Humidification Set Point Schedule Name
  ,                                       !- Design Zone Air Distribution Effectiveness in Cooling Mode
  ,                                       !- Design Zone Air Distribution Effectiveness in Heating Mode
  ,                                       !- Design Zone Secondary Recirculation Fraction {dimensionless}
  ,                                       !- Design Minimum Zone Ventilation Efficiency {dimensionless}
  Coincident;                             !- Sizing Option

OS:ZoneHVAC:EquipmentList,
  {42d88a07-610a-4297-b361-4b3d15b04ec2}, !- Handle
  Zone HVAC Equipment List 2,             !- Name
  {2c37e0b4-f331-4d0f-aca1-7d1fcd1e1360}; !- Thermal Zone

OS:AdditionalProperties,
  {2a1189d8-bc11-4e7c-af06-710263ba35d4}, !- Handle
  {2c37e0b4-f331-4d0f-aca1-7d1fcd1e1360}, !- Object Name
  ObjectType,                             !- Feature Name 1
  String,                                 !- Feature Data Type 1
  attic - vented;                         !- Feature Value 1

OS:Space,
  {b7466ddd-86ac-4f8c-a242-95144dacb42c}, !- Handle
  attic - vented 1,                       !- Name
  ,                                       !- Space Type Name
  ,                                       !- Default Construction Set Name
  ,                                       !- Default Schedule Set Name
  ,                                       !- Direction of Relative North {deg}
  ,                                       !- X Origin {m}
  ,                                       !- Y Origin {m}
  ,                                       !- Z Origin {m}
  ,                                       !- Building Story Name
  {2c37e0b4-f331-4d0f-aca1-7d1fcd1e1360}, !- Thermal Zone Name
  ,                                       !- Part of Total Floor Area
  ,                                       !- Design Specification Outdoor Air Object Name
  ,                                       !- Building Unit Name
  110.833241864513;                       !- Volume {m3}

OS:Material,
  {f17565c8-2bc8-4ea0-b295-ab6850dd4b73}, !- Handle
  asphalt or fiberglass shingles,         !- Name
  Rough,                                  !- Roughness
  0.00635,                                !- Thickness {m}