
OS:Version,
  {26a6dd4b-efe9-4eca-bffe-11f0cc64a603}, !- Handle
  3.10.0;                                 !- Version Identifier

OS:SimulationControl,
  {25c55229-81ce-4842-8462-b6763b8e07db}, !- Handle
  ,                                       !- Do Zone Sizing Calculation
  ,                                       !- Do System Sizing Calculation
  ,                                       !- Do Plant Sizing Calculation
  No;                                     !- Run Simulation for Sizing Periods

OS:Timestep,
  {607d290d-0b66-4a11-9004-ba8ed9eda0fd}, !- Handle
  1;                                      !- Number of Timesteps per Hour

OS:ShadowCalculation,
  {8ad662d7-337d-46ee-9448-0b6288c3b43e}, !- Handle
  PolygonClipping,                        !- Shading Calculation Method
  ,                                       !- Shading Calculation Update Frequency Method
  20,                                     !- Shading Calculation Update Frequency
  200,                                    !- Maximum Figures in Shadow Overlap Calculations
  ,                                       !- Polygon Clipping Algorithm
  512,                                    !- Pixel Counting Resolution
  ,                                       !- Sky Diffuse Modeling Algorithm
  No,                                     !- Output External Shading Calculation Results
  No,                                     !- Disable Self-Shading Within Shading Zone Groups
  No;                                     !- Disable Self-Shading From Shading Zone Groups to Other Zones

OS:SurfaceConvectionAlgorithm:Outside,
  {e7c7ce7d-8ffc-4fc3-9f44-1b559dd49ffc}, !- Handle
  DOE-2;                                  !- Algorithm

OS:SurfaceConvectionAlgorithm:Inside,
  {477575ba-a401-4294-9e7b-832c5c9b733e}, !- Handle
  TARP;                                   !- Algorithm

OS:ZoneCapacitanceMultiplier:ResearchSpecial,
  {06aa8b35-b2d4-4deb-af4e-0de7c5f1bd0c}, !- Handle
  7,                                      !- Temperature Capacity Multiplier
  15,                                     !- Humidity Capacity Multiplier
  ;                                       !- Carbon Dioxide Capacity Multiplier

OS:ConvergenceLimits,
  {09ac0cb3-ef76-40e1-9fc4-f4387d3dc8ab}, !- Handle
  0;                                      !- Minimum System Timestep {minutes}

OS:RunPeriod,
  {f72df117-0e33-45c1-9e9e-ab8b1f1cb7e8}, !- Handle
  Run Period 1,                           !- Name
  1,                                      !- Begin Month
  1,                                      !- Begin Day of Month
  12,                                     !- End Month
  31,                                     !- End Day of Month
  ,                                       !- Use Weather File Holidays and Special Days
  ,                                       !- Use Weather File Daylight Saving Period
  ,                                       !- Apply Weekend Holiday Rule
  ,                                       !- Use Weather File Rain Indicators
  ,                                       !- Use Weather File Snow Indicators
  ;                                       !- Number of Times Runperiod to be Repeated

OS:PerformancePrecisionTradeoffs,
  {c426f3a4-c428-4a7b-bffa-727c61a5281d}, !- Handle
  ,                                       !- Use Coil Direct Solutions
  CarrollMRT;                             !- Zone Radiant Exchange Algorithm

OS:WeatherFile,
  {f36e8403-fbf1-48a8-ba6c-1c8378b9a409}, !- Handle
  Buffalo Niagara Intl Ap,                !- City
  NY,                                     !- State Province Region
  USA,                                    !- Country
  TMY3,                                   !- Data Source
  725280,                                 !- WMO Number
  42.93,                                  !- Latitude {deg}
  -78.73,                                 !- Longitude {deg}
  -5,                                     !- Time Zone {hr}
  215,                                    !- Elevation {m}
  /Users/nmoore/github/urbanopt-example-geojson-project/example_project/weather/USA_NY_Buffalo-Greater.Buffalo.Intl.AP.725280_TMY3.epw, !- Url
  6B50E0FF,                               !- Checksum
  ,                                       !- Start Date Actual Year
  Sunday;                                 !- Start Day of Week

OS:YearDescription,
  {761f7f31-2fa5-407a-8ca7-16585f4b2da8}, !- Handle
  2007,                                   !- Calendar Year
  ,                                       !- Day of Week for Start Day
  ;                                       !- Is Leap Year

OS:Site,
  {1d04a1f5-5f66-4b24-854c-3a98b065cb58}, !- Handle
  Buffalo Niagara Intl Ap_NY,             !- Name
  42.93,                                  !- Latitude {deg}
  -78.73,                                 !- Longitude {deg}
  -5,                                     !- Time Zone {hr}
  215,                                    !- Elevation {m}
  Suburbs,                                !- Terrain
  Yes;                                    !- Keep Site Location Information

OS:RunPeriodControl:DaylightSavingTime,
  {1cfa1704-cb0a-431c-a67b-10876746cf2a}, !- Handle
  Mar 12,                                 !- Start Date
  Nov 5;                                  !- End Date

OS:Site:GroundTemperature:Shallow,
  {19f02efe-68bd-4e72-9d4f-37bb1b4ce902}, !- Handle
  4.30207395723828,                       !- January Surface Ground Temperature {C}
  2.29327249652502,                       !- February Surface Ground Temperature {C}
  2.13240047156047,                       !- March Surface Ground Temperature {C}
  3.08567940719286,                       !- April Surface Ground Temperature {C}
  6.91256312497526,                       !- May Surface Ground Temperature {C}
  10.7216195949507,                       !- June Surface Ground Temperature {C}
  14.0238679822574,                       !- July Surface Ground Temperature {C}
  16.1157611184724,                       !- August Surface Ground Temperature {C}
  16.2934789303462,                       !- September Surface Ground Temperature {C}
  14.5920754632847,                       !- October Surface Ground Temperature {C}
  11.374036348653,                        !- November Surface Ground Temperature {C}
  7.68182621661674;                       !- December Surface Ground Temperature {C}

OS:ThermalZone,
  {0dc56ce6-3ecd-41d0-b083-37912d94973e}, !- Handle
  conditioned space,                      !- Name
  1,                                      !- Multiplier
  ,                                       !- Ceiling Height {m}
  692.06373070848,                        !- Volume {m3}
  ,                                       !- Floor Area {m2}
  ,                                       !- Zone Inside Convection Algorithm
  ,                                       !- Zone Outside Convection Algorithm
  ,                                       !- Zone Conditioning Equipment List Name
  {f2dd9847-c4eb-4bcd-90d3-8ef45b1a31f8}, !- Zone Air Inlet Port List
  {1ce0dd24-3701-4efe-b578-18e113840055}, !- Zone Air Exhaust Port List
  {ca02bd0b-c71d-4602-913e-dfc90e95dfdb}, !- Zone Air Node Name
  {b0368d66-377d-4fc3-bebb-33725c9c57eb}, !- Zone Return Air Port List
  ,                                       !- Primary Daylighting Control Name
  ,                                       !- Fraction of Zone Controlled by Primary Daylighting Control
  ,                                       !- Secondary Daylighting Control Name
  ,                                       !- Fraction of Zone Controlled by Secondary Daylighting Control
  ,                                       !- Illuminance Map Name
  ,                                       !- Group Rendering Name
  {68a7762a-fb51-4270-8d9e-bab2bdef2e5a}, !- Thermostat Name
  No;                                     !- Use Ideal Air Loads

OS:Node,
  {92103270-4454-4ef4-97d2-12e45d722f87}, !- Handle
  Node 1,                                 !- Name
  {ca02bd0b-c71d-4602-913e-dfc90e95dfdb}, !- Inlet Port
  ;                                       !- Outlet Port

OS:Connection,
  {ca02bd0b-c71d-4602-913e-dfc90e95dfdb}, !- Handle
  {0dc56ce6-3ecd-41d0-b083-37912d94973e}, !- Source Object
  11,                                     !- Outlet Port
  {92103270-4454-4ef4-97d2-12e45d722f87}, !- Target Object
  2;                                      !- Inlet Port

OS:PortList,
  {f2dd9847-c4eb-4bcd-90d3-8ef45b1a31f8}, !- Handle
  {0dc56ce6-3ecd-41d0-b083-37912d94973e}, !- HVAC Component
  {6a34f807-d20b-42e4-a111-d72eb1ed9a71}, !- Port 1
  {e75fb9d5-1f97-4ce5-82c2-56070a47c7cd}, !- Port 2
  {fece295d-2968-43c1-a247-cdc541238945}; !- Port 3

OS:PortList,
  {1ce0dd24-3701-4efe-b578-18e113840055}, !- Handle
  {0dc56ce6-3ecd-41d0-b083-37912d94973e}, !- HVAC Component
  {734fc14b-d4fc-473e-ae6e-fc161df8af76}; !- Port 1

OS:PortList,
  {b0368d66-377d-4fc3-bebb-33725c9c57eb}, !- Handle
  {0dc56ce6-3ecd-41d0-b083-37912d94973e}, !- HVAC Component
  {aa62064d-450f-4488-a7b1-e32b742963e7}, !- Port 1
  {df4572b2-44f1-4928-9f57-f9f9318c51bf}; !- Port 2

OS:Sizing:Zone,
  {88254e95-4366-493e-b1cb-83ca1678e3fe}, !- Handle
  {0dc56ce6-3ecd-41d0-b083-37912d94973e}, !- Zone or ZoneList Name
  SupplyAirTemperature,                   !- Zone Cooling Design Supply Air Temperature Input Method
  14,                                     !- Zone Cooling Design Supply Air Temperature {C}
  11.11,                                  !- Zone Cooling Design Supply Air Temperature Difference {deltaC}
  SupplyAirTemperature,                   !- Zone Heating Design Supply Air Temperature Input Method
  40,                                     !- Zone Heating Design Supply Air Temperature {C}
  11.11,                                  !- Zone Heating Design Supply Air Temperature Difference {deltaC}
  0.0085,                                 !- Zone Cooling Design Supply Air Humidity Ratio {kg-H2O/kg-air}
  0.008,                                  !- Zone Heating Design Supply Air Humidity Ratio {kg-H2O/kg-air}
  ,                                       !- Zone Heating Sizing Factor
  ,                                       !- Zone Cooling Sizing Factor
  DesignDay,                              !- Cooling Design Air Flow Method
  ,                                       !- Cooling Design Air Flow Rate {m3/s}
  ,                                       !- Cooling Minimum Air Flow per Zone Floor Area {m3/s-m2}
  ,                                       !- Cooling Minimum Air Flow {m3/s}
  ,                                       !- Cooling Minimum Air Flow Fraction
  DesignDay,                              !- Heating Design Air Flow Method
  ,                                       !- Heating Design Air Flow Rate {m3/s}
  ,                                       !- Heating Maximum Air Flow per Zone Floor Area {m3/s-m2}
  ,                                       !- Heating Maximum Air Flow {m3/s}
  ,                                       !- Heating Maximum Air Flow Fraction
  No,                                     !- Account for Dedicated Outdoor Air System
  NeutralSupplyAir,                       !- Dedicated Outdoor Air System Control Strategy
  autosize,                               !- Dedicated Outdoor Air Low Setpoint Temperature for Design {C}
  autosize,                               !- Dedicated Outdoor Air High Setpoint Temperature for Design {C}
  Sensible Load Only No Latent Load,      !- Zone Load Sizing Method
  HumidityRatioDifference,                !- Zone Latent Cooling Design Supply Air Humidity Ratio Input Method
  ,                                       !- Zone Dehumidification Design Supply Air Humidity Ratio {kgWater/kgDryAir}
  0.005,                                  !- Zone Cooling Design Supply Air Humidity Ratio Difference {kgWater/kgDryAir}
  HumidityRatioDifference,                !- Zone Latent Heating Design Supply Air Humidity Ratio Input Method
  ,                                       !- Zone Humidification Design Supply Air Humidity Ratio {kgWater/kgDryAir}
  0.005,                                  !- Zone Humidification Design Supply Air Humidity Ratio Difference {kgWater/kgDryAir}
  ,                                       !- Zone Humidistat Dehumidification Set Point Schedule Name
  ,                                       !- Zone Humidistat Humidification Set Point Schedule Name
  ,                                       !- Design Zone Air Distribution Effectiveness in Cooling Mode
  ,                                       !- Design Zone Air Distribution Effectiveness in Heating Mode
  ,                                       !- Design Zone Secondary Recirculation Fraction {dimensionless}
  ,                                       !- Design Minimum Zone Ventilation Efficiency {dimensionless}
  Coincident;                             !- Sizing Option

OS:ZoneHVAC:EquipmentList,
  {a2f0d0a2-dad1-4f4c-8ca2-eb5c40c3ac53}, !- Handle
  Zone HVAC Equipment List 1,             !- Name
  {0dc56ce6-3ecd-41d0-b083-37912d94973e}, !- Thermal Zone
  ,                                       !- Load Distribution Scheme
  {749ab1c8-87db-45d3-a44c-330b76f0b59e}, !- Zone Equipment 1
  1,                                      !- Zone Equipment Cooling Sequence 1
  1,                                      !- Zone Equipment Heating or No-Load Sequence 1
  {e82ffd26-313f-455a-b69f-11e48279df01}, !- Zone Equipment Sequential Cooling Fraction Schedule Name 1
  {2cdfdb65-11f5-416c-aa13-9e286e9ab7a7}, !- Zone Equipment Sequential Heating Fraction Schedule Name 1
  {9e3da0d2-1fd3-40e3-8710-e0b766ebd377}, !- Zone Equipment 2
  2,                                      !- Zone Equipment Cooling Sequence 2
  2,                                      !- Zone Equipment Heating or No-Load Sequence 2
  {f8ce391f-1f71-4027-b13d-0de3cd2babb4}, !- Zone Equipment Sequential Cooling Fraction Schedule Name 2
  {e626fb38-4b38-4434-b85b-ea0a5a6f0f58}, !- Zone Equipment Sequential Heating Fraction Schedule Name 2
  {8a47ea74-7087-4da0-b89b-9cb8097c78e7}, !- Zone Equipment 3
  3,                                      !- Zone Equipment Cooling Sequence 3
  3,                                      !- Zone Equipment Heating or No-Load Sequence 3
  {fce58135-d103-452a-88e7-f99a190377e8}, !- Zone Equipment Sequential Cooling Fraction Schedule Name 3
  {33b00586-d384-4ac7-af35-2fe2af106b77}; !- Zone Equipment Sequential Heating Fraction Schedule Name 3

OS:AdditionalProperties,
  {3ae16299-eb91-4037-be42-80484783e3ae}, !- Handle
  {0dc56ce6-3ecd-41d0-b083-37912d94973e}, !- Object Name
  ObjectType,                             !- Feature Name 1
  String,                                 !- Feature Data Type 1
  conditioned space;                      !- Feature Value 1

OS:Space,
  {f730521a-508e-4e81-9615-398df187d26e}, !- Handle
  conditioned space 1,                    !- Name
  ,                                       !- Space Type Name
  ,                                       !- Default Construction Set Name
  ,                                       !- Default Schedule Set Name
  ,                                       !- Direction of Relative North {deg}
  ,                                       !- X Origin {m}
  ,                                       !- Y Origin {m}
  ,                                       !- Z Origin {m}
  ,                                       !- Building Story Name
  {0dc56ce6-3ecd-41d0-b083-37912d94973e}, !- Thermal Zone Name
  ,                                       !- Part of Total Floor Area
  ,                                       !- Design Specification Outdoor Air Object Name
  ,                                       !- Building Unit Name
  692.06373070848;                        !- Volume {m3}

OS:Schedule:Ruleset,
  {c4665f0a-189c-406e-9f97-b7c37d9a4893}, !- Handle
  heating setpoint,                       !- Name
  {58c70e32-811e-444a-96f3-c97113e237e2}, !- Schedule Type Limits Name
  {15c5c9b6-0e09-499a-8896-400eae0a2b36}; !- Default Day Schedule Name

OS:Schedule:Day,
  {15c5c9b6-0e09-499a-8896-400eae0a2b36}, !- Handle
  heating setpoint default day,           !- Name
  {58c70e32-811e-444a-96f3-c97113e237e2}, !- Schedule Type Limits Name
  ,                                       !- Interpolate to Timestep
  24,                                     !- Hour 1
  0,                                      !- Minute 1
  0;                                      !- Value Until Time 1

OS:Schedule:Rule,
  {abfab633-eaf5-4c88-892a-35863f5d17da}, !- Handle
  heating setpoint allday rule,           !- Name
  {c4665f0a-189c-406e-9f97-b7c37d9a4893}, !- Schedule Ruleset Name
  0,                                      !- Rule Order
  {ae8a6738-c79a-422c-adef-247eb4b8d639}, !- Day Schedule Name
  Yes,                                    !- Apply Sunday
  Yes,                                    !- Apply Monday
  Yes,                                    !- Apply Tuesday
  Yes,                                    !- Apply Wednesday
  Yes,                                    !- Apply Thursday
  Yes,                                    !- Apply Friday
  Yes,                                    !- Apply Saturday
  DateRange,                              !- Date Specification Type
  1,                                      !- Start Month
  1,                                      !- Start Day
  12,                                     !- End Month
  31;                                     !- End Day

OS:Schedule:Day,
  {ae8a6738-c79a-422c-adef-247eb4b8d639}, !- Handle
  heating setpoint day,                   !- Name
  {58c70e32-811e-444a-96f3-c97113e237e2}, !- Schedule Type Limits Name
  ,                                       !- Interpolate to Timestep
  3,                                      !- Hour 1
  0,                                      !- Minute 1
  20.2777777777778,                       !- Value Until Time 1
  12,                                     !- Hour 2
  0,                                      !- Minute 2
  19.7222222222222,                       !- Value Until Time 2
  24,                                     !- Hour 3
  0,                                      !- Minute 3
  20.2777777777778;                       !- Value Until Time 3

OS:Schedule:Ruleset,
  {d0ad852c-41c6-454d-9299-87eacc62ca22}, !- Handle
  cooling setpoint,                       !- Name
  {58c70e32-811e-444a-96f3-c97113e237e2}, !- Schedule Type Limits Name
  {1fee2b6d-0663-490c-888a-329ec5e8aa47}; !- Default Day Schedule Name

OS:Schedule:Day,
  {1fee2b6d-0663-490c-888a-329ec5e8aa47}, !- Handle
  cooling setpoint default day,           !- Name
  {58c70e32-811e-444a-96f3-c97113e237e2}, !- Schedule Type Limits Name
  ,                                       !- Interpolate to Timestep
  24,                                     !- Hour 1
  0,                                      !- Minute 1
  0;                                      !- Value Until Time 1

OS:Schedule:Rule,
  {5afe0710-953d-4eb2-8ff8-f4aa52353466}, !- Handle
  cooling setpoint allday rule,           !- Name
  {d0ad852c-41c6-454d-9299-87eacc62ca22}, !- Schedule Ruleset Name
  0,                                      !- Rule Order
  {65078b69-70e4-4e0c-b1da-1b320fde3a70}, !- Day Schedule Name
  Yes,                                    !- Apply Sunday
  Yes,                                    !- Apply Monday
  Yes,                                    !- Apply Tuesday
  Yes,                                    !- Apply Wednesday
  Yes,                                    !- Apply Thursday
  Yes,                                    !- Apply Friday
  Yes,                                    !- Apply Saturday
  DateRange,                              !- Date Specification Type
  1,                                      !- Start Month
  1,                                      !- Start Day
  12,                                     !- End Month
  31;                                     !- End Day

OS:Schedule:Day,
  {65078b69-70e4-4e0c-b1da-1b320fde3a70}, !- Handle
  cooling setpoint day,                   !- Name
  {58c70e32-811e-444a-96f3-c97113e237e2}, !- Schedule Type Limits Name
  ,                                       !- Interpolate to Timestep
  3,                                      !- Hour 1
  0,                                      !- Minute 1
  20.2777777777778,                       !- Value Until Time 1
  12,                                     !- Hour 2
  0,                                      !- Minute 2
  19.7222222222222,                       !- Value Until Time 2
  24,                                     !- Hour 3
  0,                                      !- Minute 3
  20.2777777777778;                       !- Value Until Time 3

OS:ThermostatSetpoint:DualSetpoint,
  {68a7762a-fb51-4270-8d9e-bab2bdef2e5a}, !- Handle
  conditioned space temperature setpoint, !- Name
  {c4665f0a-189c-406e-9f97-b7c37d9a4893}, !- Heating Setpoint Temperature Schedule Name
  {d0ad852c-41c6-454d-9299-87eacc62ca22}, !- Cooling Setpoint Temperature Schedule Name
  0;                                      !- Temperature Difference Between Cutout And Setpoint {deltaC}

OS:ScheduleTypeLimits,
  {58c70e32-811e-444a-96f3-c97113e237e2}, !- Handle
  Temperature,                            !- Name
  ,                                       !- Lower Limit Value
  ,                                       !- Upper Limit Value
  Continuous,                             !- Numeric Type
  Temperature;                            !- Unit Type

OS:Surface,
  {f5e123de-1872-4433-bd07-5524059cda6b}, !- Handle
  Roof1,                                  !- Name
  RoofCeiling,                            !- Surface Type
  {c8bd9981-6a4d-4865-bebc-08162260ad73}, !- Construction Name
  {1e0f34c1-0bc5-4850-ba44-a6c892aa3c4a}, !- Space Name
  Outdoors,                               !- Outside Boundary Condition
  ,                                       !- Outside Boundary Condition Object
  SunExposed,                             !- Sun Exposure
  WindExposed,                            !- Wind Exposure
  ,                                       !- View Factor to Ground
  ,                                       !- Number of Vertices
  38.358317147464, 13.6733466859255, 7.62, !- X,Y,Z Vertex 1 {m}
  32.7255339791892, 13.6733466859255, 10.4363915841374, !- X,Y,Z Vertex 2 {m}
  32.7255339791892, 7.37570365253599, 10.4363915841374, !- X,Y,Z Vertex 3 {m}
  38.358317147464, 7.37570365253599, 7.62; !- X,Y,Z Vertex 4 {m}

OS:AdditionalProperties,
  {818f9928-135d-4fee-bd67-589cfc90d106}, !- Handle
  {f5e123de-1872-4433-bd07-5524059cda6b}, !- Object Name
  Length,                                 !- Feature Name 1
  Double,                                 !- Feature Data Type 1
  20.661558508495919,                     !- Feature Value 1
  Width,                                  !- Feature Name 2
  Double,                                 !- Feature Data Type 2
  20.661558508495915,                     !- Feature Value 2
  Azimuth,                                !- Feature Name 3
  Integer,                                !- Feature Data Type 3
  90,                                     !- Feature Value 3
  Tilt,                                   !- Feature Name 4
  Double,                                 !- Feature Data Type 4
  0.5,                                    !- Feature Value 4
  SurfaceType,                            !- Feature Name 5
  String,                                 !- Feature Data Type 5
  Roof;                                   !- Feature Value 5

OS:ThermalZone,
  {7e446fd7-b667-49e1-9ce1-d03dfc35005a}, !- Handle
  attic - vented,                         !- Name
  1,                                      !- Multiplier
  ,                                       !- Ceiling Height {m}
  44.5410398080967,                       !- Volume {m3}
  ,                                       !- Floor Area {m2}
  ,                                       !- Zone Inside Convection Algorithm
  ,                                       !- Zone Outside Convection Algorithm
  ,                                       !- Zone Conditioning Equipment List Name
  {196f0cf4-7419-411b-bcf9-53545b91a0e2}, !- Zone Air Inlet Port List
  {05b74efc-2129-414a-a01a-c8ab177eae6c}, !- Zone Air Exhaust Port List
  {82499979-7c86-4fb9-b1a6-eac7022db528}, !- Zone Air Node Name
  {2523bbb3-8c54-4432-852a-49d844c1d5d4}, !- Zone Return Air Port List
  ,                                       !- Primary Daylighting Control Name
  ,                                       !- Fraction of Zone Controlled by Primary Daylighting Control
  ,                                       !- Secondary Daylighting Control Name
  ,                                       !- Fraction of Zone Controlled by Secondary Daylighting Control
  ,                                       !- Illuminance Map Name
  ,                                       !- Group Rendering Name
  ,                                       !- Thermostat Name
  No;                                     !- Use Ideal Air Loads

OS:Node,
  {2013c0ca-fae2-4b41-81b6-acb5228681a0}, !- Handle
  Node 2,                                 !- Name
  {82499979-7c86-4fb9-b1a6-eac7022db528}, !- Inlet Port
  ;                                       !- Outlet Port

OS:Connection,
  {82499979-7c86-4fb9-b1a6-eac7022db528}, !- Handle
  {7e446fd7-b667-49e1-9ce1-d03dfc35005a}, !- Source Object
  11,                                     !- Outlet Port
  {2013c0ca-fae2-4b41-81b6-acb5228681a0}, !- Target Object
  2;                                      !- Inlet Port

OS:PortList,
  {196f0cf4-7419-411b-bcf9-53545b91a0e2}, !- Handle
  {7e446fd7-b667-49e1-9ce1-d03dfc35005a}; !- HVAC Component

OS:PortList,
  {05b74efc-2129-414a-a01a-c8ab177eae6c}, !- Handle
  {7e446fd7-b667-49e1-9ce1-d03dfc35005a}; !- HVAC Component

OS:PortList,
  {2523bbb3-8c54-4432-852a-49d844c1d5d4}, !- Handle
  {7e446fd7-b667-49e1-9ce1-d03dfc35005a}; !- HVAC Component

OS:Sizing:Zone,
  {6ce2a5e4-149d-4804-acd9-aad6c9451c94}, !- Handle
  {7e446fd7-b667-49e1-9ce1-d03dfc35005a}, !- Zone or ZoneList Name
  SupplyAirTemperature,                   !- Zone Cooling Design Supply Air Temperature Input Method
  14,                                     !- Zone Cooling Design Supply Air Temperature {C}
  11.11,                                  !- Zone Cooling Design Supply Air Temperature Difference {deltaC}
  SupplyAirTemperature,                   !- Zone Heating Design Supply Air Temperature Input Method
  40,                                     !- Zone Heating Design Supply Air Temperature {C}
  11.11,                                  !- Zone Heating Design Supply Air Temperature Difference {deltaC}
  0.0085,                                 !- Zone Cooling Design Supply Air Humidity Ratio {kg-H2O/kg-air}
  0.008,                                  !- Zone Heating Design Supply Air Humidity Ratio {kg-H2O/kg-air}
  ,                                       !- Zone Heating Sizing Factor
  ,                                       !- Zone Cooling Sizing Factor
  DesignDay,                              !- Cooling Design Air Flow Method
  ,                                       !- Cooling Design Air Flow Rate {m3/s}
  ,                                       !- Cooling Minimum Air Flow per Zone Floor Area {m3/s-m2}
  ,                                       !- Cooling Minimum Air Flow {m3/s}
  ,                                       !- Cooling Minimum Air Flow Fraction
  DesignDay,                              !- Heating Design Air Flow Method
  ,                                       !- Heating Design Air Flow Rate {m3/s}
  ,                                       !- Heating Maximum Air Flow per Zone Floor Area {m3/s-m2}
  ,                                       !- Heating Maximum Air Flow {m3/s}
  ,                                       !- Heating Maximum Air Flow Fraction
  No,                                     !- Account for Dedicated Outdoor Air System
  NeutralSupplyAir,                       !- Dedicated Outdoor Air System Control Strategy
  autosize,                               !- Dedicated Outdoor Air Low Setpoint Temperature for Design {C}
  autosize,                               !- Dedicated Outdoor Air High Setpoint Temperature for Design {C}
  Sensible Load Only No Latent Load,      !- Zone Load Sizing Method
  HumidityRatioDifference,                !- Zone Latent Cooling Design Supply Air Humidity Ratio Input Method
  ,                                       !- Zone Dehumidification Design Supply Air Humidity Ratio {kgWater/kgDryAir}
  0.005,                                  !- Zone Cooling Design Supply Air Humidity Ratio Difference {kgWater/kgDryAir}
  HumidityRatioDifference,                !- Zone Latent Heating Design Supply Air Humidity Ratio Input Method
  ,                                       !- Zone Humidification Design Supply Air Humidity Ratio {kgWater/kgDryAir}
  0.005,                                  !- Zone Humidification Design Supply Air Humidity Ratio Difference {kgWater/kgDryAir}
  ,                                       !- Zone Humidistat Dehumidification Set Point Schedule Name
  ,                                       !- Zone Humidistat Humidification Set Point Schedule Name
  ,                                       !- Design Zone Air Distribution Effectiveness in Cooling Mode
  ,                                       !- Design Zone Air Distribution Effectiveness in Heating Mode
  ,                                       !- Design Zone Secondary Recirculation Fraction {dimensionless}
  ,                                       !- Design Minimum Zone Ventilation Efficiency {dimensionless}
  Coincident;                             !- Sizing Option

OS:ZoneHVAC:EquipmentList,
  {3f87d3c4-3e4e-477c-b886-3c09b30f9e5b}, !- Handle
  Zone HVAC Equipment List 2,             !- Name
  {7e446fd7-b667-49e1-9ce1-d03dfc35005a}; !- Thermal Zone

OS:AdditionalProperties,
  {1535f1c1-e890-44e1-912e-885f5836fcb9}, !- Handle
  {7e446fd7-b667-49e1-9ce1-d03dfc35005a}, !- Object Name