
OS:Version,
  {6051d6ac-71cf-4a07-b251-6e9aee1927c2}, !- Handle
  3.10.0;                                 !- Version Identifier

OS:SimulationControl,
  {a6802dcd-e52f-4799-b941-38693cd9933f}, !- Handle
  ,                                       !- Do Zone Sizing Calculation
  ,                                       !- Do System Sizing Calculation
  ,                                       !- Do Plant Sizing Calculation
  No;                                     !- Run Simulation for Sizing Periods

OS:Timestep,
  {a0128cfe-0538-460e-bec7-26d21e7e0524}, !- Handle
  1;                                      !- Number of Timesteps per Hour

OS:ShadowCalculation,
  {dc714e47-7124-4489-93cb-c02c62f0f872}, !- Handle
  PolygonClipping,                        !- Shading Calculation Method
  ,                                       !- Shading Calculation Update Frequency Method
  20,                                     !- Shading Calculation Update Frequency
  200,                                    !- Maximum Figures in Shadow Overlap Calculations
  ,                                       !- Polygon Clipping Algorithm
  512,                                    !- Pixel Counting Resolution
  ,                                       !- Sky Diffuse Modeling Algorithm
  No,                                     !- Output External Shading Calculation Results
  No,                                     !- Disable Self-Shading Within Shading Zone Groups
  No;                                     !- Disable Self-Shading From Shading Zone Groups to Other Zones

OS:SurfaceConvectionAlgorithm:Outside,
  {9a9462d3-2fd3-472e-acde-f73f8fea014c}, !- Handle
  DOE-2;                                  !- Algorithm

OS:SurfaceConvectionAlgorithm:Inside,
  {ad3c040f-2cc1-4d42-875c-951c23183608}, !- Handle
  TARP;                                   !- Algorithm

OS:ZoneCapacitanceMultiplier:ResearchSpecial,
  {5f4d9fd5-14df-4072-9b4e-34f984725fb2}, !- Handle
  7,                                      !- Temperature Capacity Multiplier
  15,                                     !- Humidity Capacity Multiplier
  ;                                       !- Carbon Dioxide Capacity Multiplier

OS:ConvergenceLimits,
  {ce8e2de4-dcda-44f0-aba0-196ae10dadc7}, !- Handle
  0;                                      !- Minimum System Timestep {minutes}

OS:RunPeriod,
  {5c0cefbc-bf6e-4aba-9080-801c4cc2d7ae}, !- Handle
  Run Period 1,                           !- Name
  1,                                      !- Begin Month
  1,                                      !- Begin Day of Month
  12,                                     !- End Month
  31,                                     !- End Day of Month
  ,                                       !- Use Weather File Holidays and Special Days
  ,                                       !- Use Weather File Daylight Saving Period
  ,                                       !- Apply Weekend Holiday Rule
  ,                                       !- Use Weather File Rain Indicators
  ,                                       !- Use Weather File Snow Indicators
  ;                                       !- Number of Times Runperiod to be Repeated

OS:PerformancePrecisionTradeoffs,
  {8d7bc95e-5480-40b4-aad9-9027b3b43c4f}, !- Handle
  ,                                       !- Use Coil Direct Solutions
  CarrollMRT;                             !- Zone Radiant Exchange Algorithm

OS:WeatherFile,
  {047bb04d-abc7-4476-9db2-8b112a6ee289}, !- Handle
  Buffalo Niagara Intl Ap,                !- City
  NY,                                     !- State Province Region
  USA,                                    !- Country
  TMY3,                                   !- Data Source
  725280,                                 !- WMO Number
  42.93,                                  !- Latitude {deg}
  -78.73,                                 !- Longitude {deg}
  -5,                                     !- Time Zone {hr}
  215,                                    !- Elevation {m}
  /Users/nmoore/github/urbanopt-example-geojson-project/example_project/weather/USA_NY_Buffalo-Greater.Buffalo.Intl.AP.725280_TMY3.epw, !- Url
  6B50E0FF,                               !- Checksum
  ,                                       !- Start Date Actual Year
  Sunday;                                 !- Start Day of Week

OS:YearDescription,
  {1c64438f-a177-436f-8953-39362ae1b566}, !- Handle
  2007,                                   !- Calendar Year
  ,                                       !- Day of Week for Start Day
  ;                                       !- Is Leap Year

OS:Site,
  {1e70aed4-21e3-44a5-ac16-e1a7b846bee5}, !- Handle
  Buffalo Niagara Intl Ap_NY,             !- Name
  42.93,                                  !- Latitude {deg}
  -78.73,                                 !- Longitude {deg}
  -5,                                     !- Time Zone {hr}
  215,                                    !- Elevation {m}
  Suburbs,                                !- Terrain
  Yes;                                    !- Keep Site Location Information

OS:RunPeriodControl:DaylightSavingTime,
  {7880821c-85cd-44f2-b8cf-3551d2cc2894}, !- Handle
  Mar 12,                                 !- Start Date
  Nov 5;                                  !- End Date

OS:Site:GroundTemperature:Shallow,
  {8747f087-80b7-4a3e-a04e-a84a034bdc29}, !- Handle
  4.30207395723828,                       !- January Surface Ground Temperature {C}
  2.29327249652502,                       !- February Surface Ground Temperature {C}
  2.13240047156047,                       !- March Surface Ground Temperature {C}
  3.08567940719286,                       !- April Surface Ground Temperature {C}
  6.91256312497526,                       !- May Surface Ground Temperature {C}
  10.7216195949507,                       !- June Surface Ground Temperature {C}
  14.0238679822574,                       !- July Surface Ground Temperature {C}
  16.1157611184724,                       !- August Surface Ground Temperature {C}
  16.2934789303462,                       !- September Surface Ground Temperature {C}
  14.5920754632847,                       !- October Surface Ground Temperature {C}
  11.374036348653,                        !- November Surface Ground Temperature {C}
  7.68182621661674;                       !- December Surface Ground Temperature {C}

OS:ThermalZone,
  {bedf07fd-15a4-42e2-b2e1-200ce62f3426}, !- Handle
  conditioned space,                      !- Name
  1,                                      !- Multiplier
  ,                                       !- Ceiling Height {m}
  346.03186535424,                        !- Volume {m3}
  ,                                       !- Floor Area {m2}
  ,                                       !- Zone Inside Convection Algorithm
  ,                                       !- Zone Outside Convection Algorithm
  ,                                       !- Zone Conditioning Equipment List Name
  {b812e9c3-4dc9-430e-9e96-44803c9e9a88}, !- Zone Air Inlet Port List
  {f3fe5d5c-f39a-450d-bf37-830f6996f9c4}, !- Zone Air Exhaust Port List
  {f62f834d-3d53-4620-8c9d-3c152eeefdb5}, !- Zone Air Node Name
  {498dbc02-ea9d-48e5-975c-531b77e3f33b}, !- Zone Return Air Port List
  ,                                       !- Primary Daylighting Control Name
  ,                                       !- Fraction of Zone Controlled by Primary Daylighting Control
  ,                                       !- Secondary Daylighting Control Name
  ,                                       !- Fraction of Zone Controlled by Secondary Daylighting Control
  ,                                       !- Illuminance Map Name
  ,                                       !- Group Rendering Name
  {18813909-ef14-445e-8eca-7edc6e208947}, !- Thermostat Name
  No;                                     !- Use Ideal Air Loads

OS:Node,
  {68c5cbd4-3058-4a10-b06a-18344f1addda}, !- Handle
  Node 1,                                 !- Name
  {f62f834d-3d53-4620-8c9d-3c152eeefdb5}, !- Inlet Port
  ;                                       !- Outlet Port

OS:Connection,
  {f62f834d-3d53-4620-8c9d-3c152eeefdb5}, !- Handle
  {bedf07fd-15a4-42e2-b2e1-200ce62f3426}, !- Source Object
  11,                                     !- Outlet Port
  {68c5cbd4-3058-4a10-b06a-18344f1addda}, !- Target Object
  2;                                      !- Inlet Port

OS:PortList,
  {b812e9c3-4dc9-430e-9e96-44803c9e9a88}, !- Handle
  {bedf07fd-15a4-42e2-b2e1-200ce62f3426}, !- HVAC Component
  {34cedbe1-3a37-448f-8297-63093d23ae20}; !- Port 1

OS:PortList,
  {f3fe5d5c-f39a-450d-bf37-830f6996f9c4}, !- Handle
  {bedf07fd-15a4-42e2-b2e1-200ce62f3426}; !- HVAC Component

OS:PortList,
  {498dbc02-ea9d-48e5-975c-531b77e3f33b}, !- Handle
  {bedf07fd-15a4-42e2-b2e1-200ce62f3426}, !- HVAC Component
  {ba814eee-b857-4768-8b67-fca32428fe1c}; !- Port 1

OS:Sizing:Zone,
  {756b03cc-fb7c-46c9-bb93-c59d1875e1d8}, !- Handle
  {bedf07fd-15a4-42e2-b2e1-200ce62f3426}, !- Zone or ZoneList Name
  SupplyAirTemperature,                   !- Zone Cooling Design Supply Air Temperature Input Method
  14,                                     !- Zone Cooling Design Supply Air Temperature {C}
  11.11,                                  !- Zone Cooling Design Supply Air Temperature Difference {deltaC}
  SupplyAirTemperature,                   !- Zone Heating Design Supply Air Temperature Input Method
  40,                                     !- Zone Heating Design Supply Air Temperature {C}
  11.11,                                  !- Zone Heating Design Supply Air Temperature Difference {deltaC}
  0.0085,                                 !- Zone Cooling Design Supply Air Humidity Ratio {kg-H2O/kg-air}
  0.008,                                  !- Zone Heating Design Supply Air Humidity Ratio {kg-H2O/kg-air}
  ,                                       !- Zone Heating Sizing Factor
  ,                                       !- Zone Cooling Sizing Factor
  DesignDay,                              !- Cooling Design Air Flow Method
  ,                                       !- Cooling Design Air Flow Rate {m3/s}
  ,                                       !- Cooling Minimum Air Flow per Zone Floor Area {m3/s-m2}
  ,                                       !- Cooling Minimum Air Flow {m3/s}
  ,                                       !- Cooling Minimum Air Flow Fraction
  DesignDay,                              !- Heating Design Air Flow Method
  ,                                       !- Heating Design Air Flow Rate {m3/s}
  ,                                       !- Heating Maximum Air Flow per Zone Floor Area {m3/s-m2}
  ,                                       !- Heating Maximum Air Flow {m3/s}
  ,                                       !- Heating Maximum Air Flow Fraction
  No,                                     !- Account for Dedicated Outdoor Air System
  NeutralSupplyAir,                       !- Dedicated Outdoor Air System Control Strategy
  autosize,                               !- Dedicated Outdoor Air Low Setpoint Temperature for Design {C}
  autosize,                               !- Dedicated Outdoor Air High Setpoint Temperature for Design {C}
  Sensible Load Only No Latent Load,      !- Zone Load Sizing Method
  HumidityRatioDifference,                !- Zone Latent Cooling Design Supply Air Humidity Ratio Input Method
  ,                                       !- Zone Dehumidification Design Supply Air Humidity Ratio {kgWater/kgDryAir}
  0.005,                                  !- Zone Cooling Design Supply Air Humidity Ratio Difference {kgWater/kgDryAir}
  HumidityRatioDifference,                !- Zone Latent Heating Design Supply Air Humidity Ratio Input Method
  ,                                       !- Zone Humidification Design Supply Air Humidity Ratio {kgWater/kgDryAir}
  0.005,                                  !- Zone Humidification Design Supply Air Humidity Ratio Difference {kgWater/kgDryAir}
  ,                                       !- Zone Humidistat Dehumidification Set Point Schedule Name
  ,                                       !- Zone Humidistat Humidification Set Point Schedule Name
  ,                                       !- Design Zone Air Distribution Effectiveness in Cooling Mode
  ,                                       !- Design Zone Air Distribution Effectiveness in Heating Mode
  ,                                       !- Design Zone Secondary Recirculation Fraction {dimensionless}
  ,                                       !- Design Minimum Zone Ventilation Efficiency {dimensionless}
  Coincident;                             !- Sizing Option

OS:ZoneHVAC:EquipmentList,
  {60eca58a-be1b-4481-a2d3-c6fd6a46fba7}, !- Handle
  Zone HVAC Equipment List 1,             !- Name
  {bedf07fd-15a4-42e2-b2e1-200ce62f3426}, !- Thermal Zone
  ,                                       !- Load Distribution Scheme
  {2061be96-16b0-4ab4-83d1-941a8af522c2}, !- Zone Equipment 1
  1,                                      !- Zone Equipment Cooling Sequence 1
  1,                                      !- Zone Equipment Heating or No-Load Sequence 1
  {edf916b2-de11-4e0e-83c0-05859c2e3a89}, !- Zone Equipment Sequential Cooling Fraction Schedule Name 1
  {6857610b-d995-4230-8670-b425f58c6daa}; !- Zone Equipment Sequential Heating Fraction Schedule Name 1

OS:AdditionalProperties,
  {d9dcd9f1-6bc5-40ad-9d1a-b595c23129f7}, !- Handle
  {bedf07fd-15a4-42e2-b2e1-200ce62f3426}, !- Object Name
  ObjectType,                             !- Feature Name 1
  String,                                 !- Feature Data Type 1
  conditioned space;                      !- Feature Value 1

OS:Space,
  {e29e1f08-c69f-4e92-ab9c-0699ddea7428}, !- Handle
  conditioned space 1,                    !- Name
  ,                                       !- Space Type Name
  ,                                       !- Default Construction Set Name
  ,                                       !- Default Schedule Set Name
  ,                                       !- Direction of Relative North {deg}
  ,                                       !- X Origin {m}
  ,                                       !- Y Origin {m}
  ,                                       !- Z Origin {m}
  ,                                       !- Building Story Name
  {bedf07fd-15a4-42e2-b2e1-200ce62f3426}, !- Thermal Zone Name
  ,                                       !- Part of Total Floor Area
  ,                                       !- Design Specification Outdoor Air Object Name
  ,                                       !- Building Unit Name
  346.03186535424;                        !- Volume {m3}

OS:Schedule:Ruleset,
  {8a514036-5ee5-4622-aaa7-2c634963934b}, !- Handle
  heating setpoint,                       !- Name
  {7bf3a40f-2c17-4881-a041-be95bbd612f6}, !- Schedule Type Limits Name
  {7a1e9623-9d25-4f60-a0cd-f4d21d6ff31a}; !- Default Day Schedule Name

OS:Schedule:Day,
  {7a1e9623-9d25-4f60-a0cd-f4d21d6ff31a}, !- Handle
  heating setpoint default day,           !- Name
  {7bf3a40f-2c17-4881-a041-be95bbd612f6}, !- Schedule Type Limits Name
  ,                                       !- Interpolate to Timestep
  24,                                     !- Hour 1
  0,                                      !- Minute 1
  0;                                      !- Value Until Time 1

OS:Schedule:Rule,
  {99b8311b-2b31-42c1-a493-19cb5fc4a64a}, !- Handle
  heating setpoint allday rule,           !- Name
  {8a514036-5ee5-4622-aaa7-2c634963934b}, !- Schedule Ruleset Name
  0,                                      !- Rule Order
  {ff620eb5-2941-459b-be10-721573aed8ef}, !- Day Schedule Name
  Yes,                                    !- Apply Sunday
  Yes,                                    !- Apply Monday
  Yes,                                    !- Apply Tuesday
  Yes,                                    !- Apply Wednesday
  Yes,                                    !- Apply Thursday
  Yes,                                    !- Apply Friday
  Yes,                                    !- Apply Saturday
  DateRange,                              !- Date Specification Type
  1,                                      !- Start Month
  1,                                      !- Start Day
  12,                                     !- End Month
  31;                                     !- End Day

OS:Schedule:Day,
  {ff620eb5-2941-459b-be10-721573aed8ef}, !- Handle
  heating setpoint day,                   !- Name
  {7bf3a40f-2c17-4881-a041-be95bbd612f6}, !- Schedule Type Limits Name
  ,                                       !- Interpolate to Timestep
  24,                                     !- Hour 1
  0,                                      !- Minute 1
  20;                                     !- Value Until Time 1

OS:Schedule:Ruleset,
  {1f196ed7-b0df-49ce-9cf3-ce4c74536267}, !- Handle
  cooling setpoint,                       !- Name
  {7bf3a40f-2c17-4881-a041-be95bbd612f6}, !- Schedule Type Limits Name
  {b854b9e4-bfd1-4e75-a410-c3e9dc29edd9}; !- Default Day Schedule Name

OS:Schedule:Day,
  {b854b9e4-bfd1-4e75-a410-c3e9dc29edd9}, !- Handle
  cooling setpoint default day,           !- Name
  {7bf3a40f-2c17-4881-a041-be95bbd612f6}, !- Schedule Type Limits Name
  ,                                       !- Interpolate to Timestep
  24,                                     !- Hour 1
  0,                                      !- Minute 1
  0;                                      !- Value Until Time 1

OS:Schedule:Rule,
  {7d26a314-28ec-4a87-9576-43c577d452a0}, !- Handle
  cooling setpoint allday rule,           !- Name
  {1f196ed7-b0df-49ce-9cf3-ce4c74536267}, !- Schedule Ruleset Name
  0,                                      !- Rule Order
  {d847c710-f1a2-4fb1-9ebd-e9f99de0da0f}, !- Day Schedule Name
  Yes,                                    !- Apply Sunday
  Yes,                                    !- Apply Monday
  Yes,                                    !- Apply Tuesday
  Yes,                                    !- Apply Wednesday
  Yes,                                    !- Apply Thursday
  Yes,                                    !- Apply Friday
  Yes,                                    !- Apply Saturday
  DateRange,                              !- Date Specification Type
  1,                                      !- Start Month
  1,                                      !- Start Day
  12,                                     !- End Month
  31;                                     !- End Day

OS:Schedule:Day,
  {d847c710-f1a2-4fb1-9ebd-e9f99de0da0f}, !- Handle
  cooling setpoint day,                   !- Name
  {7bf3a40f-2c17-4881-a041-be95bbd612f6}, !- Schedule Type Limits Name
  ,                                       !- Interpolate to Timestep
  24,                                     !- Hour 1
  0,                                      !- Minute 1
  25.5555555555556;                       !- Value Until Time 1

OS:ThermostatSetpoint:DualSetpoint,
  {18813909-ef14-445e-8eca-7edc6e208947}, !- Handle
  conditioned space temperature setpoint, !- Name
  {8a514036-5ee5-4622-aaa7-2c634963934b}, !- Heating Setpoint Temperature Schedule Name
  {1f196ed7-b0df-49ce-9cf3-ce4c74536267}, !- Cooling Setpoint Temperature Schedule Name
  0;                                      !- Temperature Difference Between Cutout And Setpoint {deltaC}

OS:ScheduleTypeLimits,
  {7bf3a40f-2c17-4881-a041-be95bbd612f6}, !- Handle
  Temperature,                            !- Name
  ,                                       !- Lower Limit Value
  ,                                       !- Upper Limit Value
  Continuous,                             !- Numeric Type
  Temperature;                            !- Unit Type

OS:Surface,
  {23a56a88-68ed-4604-a6ac-58e05a035d2b}, !- Handle
  Roof1,                                  !- Name
  RoofCeiling,                            !- Surface Type
  {2d8f9667-c0f6-4184-b0a9-c96ecb3d455c}, !- Construction Name
  {24140fa5-e29b-48b0-844c-6ea9c3f7aa58}, !- Space Name
  Outdoors,                               !- Outside Boundary Condition
  ,                                       !- Outside Boundary Condition Object
  SunExposed,                             !- Sun Exposure
  WindExposed,                            !- Wind Exposure
  ,                                       !- View Factor to Ground
  ,                                       !- Number of Vertices
  -25.0448166683368, 35.3267874683368, 2.4384, !- X,Y,Z Vertex 1 {m}
  -25.0448166683368, 27.3603626312596, 6.42161241853859, !- X,Y,Z Vertex 2 {m}
  -16.1380829316632, 27.3603626312596, 6.42161241853859, !- X,Y,Z Vertex 3 {m}
  -16.1380829316632, 35.3267874683368, 2.4384; !- X,Y,Z Vertex 4 {m}

OS:AdditionalProperties,
  {c7a94d26-ad2c-44ea-bfd7-3d583c7d0918}, !- Handle
  {23a56a88-68ed-4604-a6ac-58e05a035d2b}, !- Object Name
  Length,                                 !- Feature Name 1
  Double,                                 !- Feature Data Type 1
  29.221567377538118,                     !- Feature Value 1
  Width,                                  !- Feature Name 2
  Double,                                 !- Feature Data Type 2
  29.221567377538118,                     !- Feature Value 2
  Azimuth,                                !- Feature Name 3
  Integer,                                !- Feature Data Type 3
  0,                                      !- Feature Value 3
  Tilt,                                   !- Feature Name 4
  Double,                                 !- Feature Data Type 4
  0.5,                                    !- Feature Value 4
  SurfaceType,                            !- Feature Name 5
  String,                                 !- Feature Data Type 5
  Roof;                                   !- Feature Value 5

OS:ThermalZone,
  {abedc328-2ca2-4a19-b13e-0fa72fb56ef0}, !- Handle
  attic - vented,                         !- Name
  1,                                      !- Multiplier
  ,                                       !- Ceiling Height {m}
  126.003218814318,                       !- Volume {m3}
  ,                                       !- Floor Area {m2}
  ,                                       !- Zone Inside Convection Algorithm
  ,                                       !- Zone Outside Convection Algorithm
  ,                                       !- Zone Conditioning Equipment List Name
  {8665c500-f6dd-47de-b6bc-74f3be63c569}, !- Zone Air Inlet Port List
  {5713e002-4f98-42a5-bf99-26bfae6dd5ea}, !- Zone Air Exhaust Port List
  {f4a4f686-c52d-4751-9030-2939af36bcc5}, !- Zone Air Node Name
  {44586a19-5de3-4c7e-88c5-bb9d7af6e4f1}, !- Zone Return Air Port List
  ,                                       !- Primary Daylighting Control Name
  ,                                       !- Fraction of Zone Controlled by Primary Daylighting Control
  ,                                       !- Secondary Daylighting Control Name
  ,                                       !- Fraction of Zone Controlled by Secondary Daylighting Control
  ,                                       !- Illuminance Map Name
  ,                                       !- Group Rendering Name
  ,                                       !- Thermostat Name
  No;                                     !- Use Ideal Air Loads

OS:Node,
  {c3278603-10a4-4358-b7cb-cab217137fd9}, !- Handle
  Node 2,                                 !- Name
  {f4a4f686-c52d-4751-9030-2939af36bcc5}, !- Inlet Port
  ;                                       !- Outlet Port

OS:Connection,
  {f4a4f686-c52d-4751-9030-2939af36bcc5}, !- Handle
  {abedc328-2ca2-4a19-b13e-0fa72fb56ef0}, !- Source Object
  11,                                     !- Outlet Port
  {c3278603-10a4-4358-b7cb-cab217137fd9}, !- Target Object
  2;                                      !- Inlet Port

OS:PortList,
  {8665c500-f6dd-47de-b6bc-74f3be63c569}, !- Handle
  {abedc328-2ca2-4a19-b13e-0fa72fb56ef0}; !- HVAC Component

OS:PortList,
  {5713e002-4f98-42a5-bf99-26bfae6dd5ea}, !- Handle
  {abedc328-2ca2-4a19-b13e-0fa72fb56ef0}; !- HVAC Component

OS:PortList,
  {44586a19-5de3-4c7e-88c5-bb9d7af6e4f1}, !- Handle
  {abedc328-2ca2-4a19-b13e-0fa72fb56ef0}; !- HVAC Component

OS:Sizing:Zone,
  {e3342b63-26d2-4504-9317-0f3bfe7d5f6a}, !- Handle
  {abedc328-2ca2-4a19-b13e-0fa72fb56ef0}, !- Zone or ZoneList Name
  SupplyAirTemperature,                   !- Zone Cooling Design Supply Air Temperature Input Method
  14,                                     !- Zone Cooling Design Supply Air Temperature {C}
  11.11,                                  !- Zone Cooling Design Supply Air Temperature Difference {deltaC}
  SupplyAirTemperature,                   !- Zone Heating Design Supply Air Temperature Input Method
  40,                                     !- Zone Heating Design Supply Air Temperature {C}
  11.11,                                  !- Zone Heating Design Supply Air Temperature Difference {deltaC}
  0.0085,                                 !- Zone Cooling Design Supply Air Humidity Ratio {kg-H2O/kg-air}
  0.008,                                  !- Zone Heating Design Supply Air Humidity Ratio {kg-H2O/kg-air}
  ,                                       !- Zone Heating Sizing Factor
  ,                                       !- Zone Cooling Sizing Factor
  DesignDay,                              !- Cooling Design Air Flow Method
  ,                                       !- Cooling Design Air Flow Rate {m3/s}
  ,                                       !- Cooling Minimum Air Flow per Zone Floor Area {m3/s-m2}
  ,                                       !- Cooling Minimum Air Flow {m3/s}
  ,                                       !- Cooling Minimum Air Flow Fraction
  DesignDay,                              !- Heating Design Air Flow Method
  ,                                       !- Heating Design Air Flow Rate {m3/s}
  ,                                       !- Heating Maximum Air Flow per Zone Floor Area {m3/s-m2}
  ,                                       !- Heating Maximum Air Flow {m3/s}
  ,                                       !- Heating Maximum Air Flow Fraction
  No,                                     !- Account for Dedicated Outdoor Air System
  NeutralSupplyAir,                       !- Dedicated Outdoor Air System Control Strategy
  autosize,                               !- Dedicated Outdoor Air Low Setpoint Temperature for Design {C}
  autosize,                               !- Dedicated Outdoor Air High Setpoint Temperature for Design {C}
  Sensible Load Only No Latent Load,      !- Zone Load Sizing Method
  HumidityRatioDifference,                !- Zone Latent Cooling Design Supply Air Humidity Ratio Input Method
  ,                                       !- Zone Dehumidification Design Supply Air Humidity Ratio {kgWater/kgDryAir}
  0.005,                                  !- Zone Cooling Design Supply Air Humidity Ratio Difference {kgWater/kgDryAir}
  HumidityRatioDifference,                !- Zone Latent Heating Design Supply Air Humidity Ratio Input Method
  ,                                       !- Zone Humidification Design Supply Air Humidity Ratio {kgWater/kgDryAir}
  0.005,                                  !- Zone Humidification Design Supply Air Humidity Ratio Difference {kgWater/kgDryAir}
  ,                                       !- Zone Humidistat Dehumidification Set Point Schedule Name
  ,                                       !- Zone Humidistat Humidification Set Point Schedule Name
  ,                                       !- Design Zone Air Distribution Effectiveness in Cooling Mode
  ,                                       !- Design Zone Air Distribution Effectiveness in Heating Mode
  ,                                       !- Design Zone Secondary Recirculation Fraction {dimensionless}
  ,                                       !- Design Minimum Zone Ventilation Efficiency {dimensionless}
  Coincident;                             !- Sizing Option

OS:ZoneHVAC:EquipmentList,
  {1dc818de-e189-48fa-9530-c4fd15e144e4}, !- Handle
  Zone HVAC Equipment List 2,             !- Name
  {abedc328-2ca2-4a19-b13e-0fa72fb56ef0}; !- Thermal Zone

OS:AdditionalProperties,
  {c3ec296a-b557-4073-9fdc-381553358d72}, !- Handle
  {abedc328-2ca2-4a19-b13e-0fa72fb56ef0}, !- Object Name
  ObjectType,                             !- Feature Name 1
  String,                                 !- Feature Data Type 1
  attic - vented;                         !- Feature Value 1

OS:Space,
  {24140fa5-e29b-48b0-844c-6ea9c3f7aa58}, !- Handle
  attic - vented 1,                       !- Name
  ,                                       !- Space Type Name
  ,                                       !- Default Construction Set Name
  ,                                       !- Default Schedule Set Name
  ,                                       !- Direction of Relative North {deg}
  ,                                       !- X Origin {m}
  ,                                       !- Y Origin {m}
  ,                                       !- Z Origin {m}
  ,                                       !- Building Story Name
  {abedc328-2ca2-4a19-b13e-0fa72fb56ef0}, !- Thermal Zone Name
  ,                                       !- Part of Total Floor Area
  ,                                       !- Design Specification Outdoor Air Object Name
  ,                                       !- Building Unit Name
  126.003218814318;                       !- Volume {m3}

OS:Material,
  {a3f2f910-68ef-4fde-bcb1-a0b5d7980bf2}, !- Handle
  asphalt or fiberglass shingles,         !- Name
  Rough,                                  !- Roughness
  0.00635,                                !- Thickness {m}
  0.162714,                               !- Conductivity {W/m-K}
  1121.4,                                 !- Density {kg/m3}
  1465.45,                                !- Specific Heat {J/kg-K}
  0.9,                                    !- Thermal Absorptance
  0.85,                                   !- Solar Absorptance