
OS:Version,
  {ec0474a3-11e4-473a-a47d-66fc531771ad}, !- Handle
  3.9.0;                                  !- Version Identifier

OS:SimulationControl,
  {1575e0e2-96ef-432a-9369-0176255a7bd1}, !- Handle
  ,                                       !- Do Zone Sizing Calculation
  ,                                       !- Do System Sizing Calculation
  ,                                       !- Do Plant Sizing Calculation
  No;                                     !- Run Simulation for Sizing Periods

OS:Timestep,
  {24d20516-d480-4e4d-928c-6de8f7fda173}, !- Handle
  1;                                      !- Number of Timesteps per Hour

OS:ShadowCalculation,
  {0403ae99-2674-4556-8283-e3a5ebf5ee32}, !- Handle
  PolygonClipping,                        !- Shading Calculation Method
  ,                                       !- Shading Calculation Update Frequency Method
  20,                                     !- Shading Calculation Update Frequency
  200,                                    !- Maximum Figures in Shadow Overlap Calculations
  ,                                       !- Polygon Clipping Algorithm
  512,                                    !- Pixel Counting Resolution
  ,                                       !- Sky Diffuse Modeling Algorithm
  No,                                     !- Output External Shading Calculation Results
  No,                                     !- Disable Self-Shading Within Shading Zone Groups
  No;                                     !- Disable Self-Shading From Shading Zone Groups to Other Zones

OS:SurfaceConvectionAlgorithm:Outside,
  {43925aec-6d6e-476b-8322-ad1f4048dd1a}, !- Handle
  DOE-2;                                  !- Algorithm

OS:SurfaceConvectionAlgorithm:Inside,
  {674edf23-e1e3-47cc-880a-22332444c0ff}, !- Handle
  TARP;                                   !- Algorithm

OS:ZoneCapacitanceMultiplier:ResearchSpecial,
  {63890266-ae01-4710-a424-7a8237a66ec8}, !- Handle
  7,                                      !- Temperature Capacity Multiplier
  15,                                     !- Humidity Capacity Multiplier
  ;                                       !- Carbon Dioxide Capacity Multiplier

OS:ConvergenceLimits,
  {2900853b-c765-4a71-8989-86ab55e7c431}, !- Handle
  0;                                      !- Minimum System Timestep {minutes}

OS:RunPeriod,
  {e80f322b-56cc-4e09-9fa5-6d774e64f00c}, !- Handle
  Run Period 1,                           !- Name
  1,                                      !- Begin Month
  1,                                      !- Begin Day of Month
  12,                                     !- End Month
  31,                                     !- End Day of Month
  ,                                       !- Use Weather File Holidays and Special Days
  ,                                       !- Use Weather File Daylight Saving Period
  ,                                       !- Apply Weekend Holiday Rule
  ,                                       !- Use Weather File Rain Indicators
  ,                                       !- Use Weather File Snow Indicators
  ;                                       !- Number of Times Runperiod to be Repeated

OS:PerformancePrecisionTradeoffs,
  {4a4dcd3f-76d5-4096-886a-279fb66675cb}, !- Handle
  ,                                       !- Use Coil Direct Solutions
  CarrollMRT;                             !- Zone Radiant Exchange Algorithm

OS:WeatherFile,
  {efd6dff7-acf8-48ea-84d7-096a57482239}, !- Handle
  Buffalo Niagara Intl Ap,                !- City
  NY,                                     !- State Province Region
  USA,                                    !- Country
  TMY3,                                   !- Data Source
  725280,                                 !- WMO Number
  42.93,                                  !- Latitude {deg}
  -78.73,                                 !- Longitude {deg}
  -5,                                     !- Time Zone {hr}
  215,                                    !- Elevation {m}
  /Users/nmoore/github/urbanopt-example-geojson-project/example_project/weather/USA_NY_Buffalo-Greater.Buffalo.Intl.AP.725280_TMY3.epw, !- Url
  6B50E0FF,                               !- Checksum
  ,                                       !- Start Date Actual Year
  Sunday;                                 !- Start Day of Week

OS:YearDescription,
  {6de4c197-17af-4a6c-8a3c-b488bfaff201}, !- Handle
  2007,                                   !- Calendar Year
  ,                                       !- Day of Week for Start Day
  ;                                       !- Is Leap Year

OS:Site,
  {4905755d-9e68-45c2-b369-86814a851675}, !- Handle
  Buffalo Niagara Intl Ap_NY,             !- Name
  42.93,                                  !- Latitude {deg}
  -78.73,                                 !- Longitude {deg}
  -5,                                     !- Time Zone {hr}
  215,                                    !- Elevation {m}
  Suburbs,                                !- Terrain
  Yes;                                    !- Keep Site Location Information

OS:RunPeriodControl:DaylightSavingTime,
  {44c0b2bb-8cf1-4ff4-95e5-030d82925ef7}, !- Handle
  Mar 12,                                 !- Start Date
  Nov 5;                                  !- End Date

OS:Site:GroundTemperature:Shallow,
  {0e0edd98-36e4-4f41-9a98-25fb2161d833}, !- Handle
  4.30207395723828,                       !- January Surface Ground Temperature {C}
  2.29327249652502,                       !- February Surface Ground Temperature {C}
  2.13240047156047,                       !- March Surface Ground Temperature {C}
  3.08567940719286,                       !- April Surface Ground Temperature {C}
  6.91256312497526,                       !- May Surface Ground Temperature {C}
  10.7216195949507,                       !- June Surface Ground Temperature {C}
  14.0238679822574,                       !- July Surface Ground Temperature {C}
  16.1157611184724,                       !- August Surface Ground Temperature {C}
  16.2934789303462,                       !- September Surface Ground Temperature {C}
  14.5920754632847,                       !- October Surface Ground Temperature {C}
  11.374036348653,                        !- November Surface Ground Temperature {C}
  7.68182621661674;                       !- December Surface Ground Temperature {C}

OS:ThermalZone,
  {eab9c8df-e0b7-455e-a64f-52cc5716bc31}, !- Handle
  conditioned space,                      !- Name
  1,                                      !- Multiplier
  ,                                       !- Ceiling Height {m}
  346.03186535424,                        !- Volume {m3}
  ,                                       !- Floor Area {m2}
  ,                                       !- Zone Inside Convection Algorithm
  ,                                       !- Zone Outside Convection Algorithm
  ,                                       !- Zone Conditioning Equipment List Name
  {dd1f9492-bc5d-4789-ad3b-e3547f3b22af}, !- Zone Air Inlet Port List
  {df0e1b24-afcc-4bc6-9b5c-8c9d6273c32b}, !- Zone Air Exhaust Port List
  {d16d5079-748a-4060-9731-65ed4088d944}, !- Zone Air Node Name
  {f972a1d0-85b1-4210-a52a-8f57fa4f8fef}, !- Zone Return Air Port List
  ,                                       !- Primary Daylighting Control Name
  ,                                       !- Fraction of Zone Controlled by Primary Daylighting Control
  ,                                       !- Secondary Daylighting Control Name
  ,                                       !- Fraction of Zone Controlled by Secondary Daylighting Control
  ,                                       !- Illuminance Map Name
  ,                                       !- Group Rendering Name
  {dd416583-468a-4f3b-99b8-e6b7b654e75c}, !- Thermostat Name
  No;                                     !- Use Ideal Air Loads

OS:Node,
  {e232033a-8784-4051-8124-817bf56a3673}, !- Handle
  Node 1,                                 !- Name
  {d16d5079-748a-4060-9731-65ed4088d944}, !- Inlet Port
  ;                                       !- Outlet Port

OS:Connection,
  {d16d5079-748a-4060-9731-65ed4088d944}, !- Handle
  {eab9c8df-e0b7-455e-a64f-52cc5716bc31}, !- Source Object
  11,                                     !- Outlet Port
  {e232033a-8784-4051-8124-817bf56a3673}, !- Target Object
  2;                                      !- Inlet Port

OS:PortList,
  {dd1f9492-bc5d-4789-ad3b-e3547f3b22af}, !- Handle
  {eab9c8df-e0b7-455e-a64f-52cc5716bc31}, !- HVAC Component
  {4d471dc2-037d-4d3b-bb61-ea0d7add6e89}; !- Port 1

OS:PortList,
  {df0e1b24-afcc-4bc6-9b5c-8c9d6273c32b}, !- Handle
  {eab9c8df-e0b7-455e-a64f-52cc5716bc31}; !- HVAC Component

OS:PortList,
  {f972a1d0-85b1-4210-a52a-8f57fa4f8fef}, !- Handle
  {eab9c8df-e0b7-455e-a64f-52cc5716bc31}, !- HVAC Component
  {c39b5023-9e53-46f0-9e05-de3ea813f513}; !- Port 1

OS:Sizing:Zone,
  {e22ec58e-4fc8-4ba9-be90-5c2b938e42a6}, !- Handle
  {eab9c8df-e0b7-455e-a64f-52cc5716bc31}, !- Zone or ZoneList Name
  SupplyAirTemperature,                   !- Zone Cooling Design Supply Air Temperature Input Method
  14,                                     !- Zone Cooling Design Supply Air Temperature {C}
  11.11,                                  !- Zone Cooling Design Supply Air Temperature Difference {deltaC}
  SupplyAirTemperature,                   !- Zone Heating Design Supply Air Temperature Input Method
  40,                                     !- Zone Heating Design Supply Air Temperature {C}
  11.11,                                  !- Zone Heating Design Supply Air Temperature Difference {deltaC}
  0.0085,                                 !- Zone Cooling Design Supply Air Humidity Ratio {kg-H2O/kg-air}
  0.008,                                  !- Zone Heating Design Supply Air Humidity Ratio {kg-H2O/kg-air}
  ,                                       !- Zone Heating Sizing Factor
  ,                                       !- Zone Cooling Sizing Factor
  DesignDay,                              !- Cooling Design Air Flow Method
  ,                                       !- Cooling Design Air Flow Rate {m3/s}
  ,                                       !- Cooling Minimum Air Flow per Zone Floor Area {m3/s-m2}
  ,                                       !- Cooling Minimum Air Flow {m3/s}
  ,                                       !- Cooling Minimum Air Flow Fraction
  DesignDay,                              !- Heating Design Air Flow Method
  ,                                       !- Heating Design Air Flow Rate {m3/s}
  ,                                       !- Heating Maximum Air Flow per Zone Floor Area {m3/s-m2}
  ,                                       !- Heating Maximum Air Flow {m3/s}
  ,                                       !- Heating Maximum Air Flow Fraction
  No,                                     !- Account for Dedicated Outdoor Air System
  NeutralSupplyAir,                       !- Dedicated Outdoor Air System Control Strategy
  autosize,                               !- Dedicated Outdoor Air Low Setpoint Temperature for Design {C}
  autosize,                               !- Dedicated Outdoor Air High Setpoint Temperature for Design {C}
  Sensible Load Only No Latent Load,      !- Zone Load Sizing Method
  HumidityRatioDifference,                !- Zone Latent Cooling Design Supply Air Humidity Ratio Input Method
  ,                                       !- Zone Dehumidification Design Supply Air Humidity Ratio {kgWater/kgDryAir}
  0.005,                                  !- Zone Cooling Design Supply Air Humidity Ratio Difference {kgWater/kgDryAir}
  HumidityRatioDifference,                !- Zone Latent Heating Design Supply Air Humidity Ratio Input Method
  ,                                       !- Zone Humidification Design Supply Air Humidity Ratio {kgWater/kgDryAir}
  0.005,                                  !- Zone Humidification Design Supply Air Humidity Ratio Difference {kgWater/kgDryAir}
  ,                                       !- Zone Humidistat Dehumidification Set Point Schedule Name
  ,                                       !- Zone Humidistat Humidification Set Point Schedule Name
  ,                                       !- Design Zone Air Distribution Effectiveness in Cooling Mode
  ,                                       !- Design Zone Air Distribution Effectiveness in Heating Mode
  ,                                       !- Design Zone Secondary Recirculation Fraction {dimensionless}
  ,                                       !- Design Minimum Zone Ventilation Efficiency {dimensionless}
  Coincident;                             !- Sizing Option

OS:ZoneHVAC:EquipmentList,
  {4dcbd0cf-83df-4fa9-b015-464888ed0c63}, !- Handle
  Zone HVAC Equipment List 1,             !- Name
  {eab9c8df-e0b7-455e-a64f-52cc5716bc31}, !- Thermal Zone
  ,                                       !- Load Distribution Scheme
  {d8b3582b-3687-43d5-b85e-6365b394ddf2}, !- Zone Equipment 1
  1,                                      !- Zone Equipment Cooling Sequence 1
  1,                                      !- Zone Equipment Heating or No-Load Sequence 1
  {9c86105e-5d2c-494e-ab3c-decae5ed1aa4}, !- Zone Equipment Sequential Cooling Fraction Schedule Name 1
  {0b99669e-6b2a-47af-873a-98d058e5b55c}; !- Zone Equipment Sequential Heating Fraction Schedule Name 1

OS:AdditionalProperties,
  {e8d87821-5372-4145-94bd-aa359465d227}, !- Handle
  {eab9c8df-e0b7-455e-a64f-52cc5716bc31}, !- Object Name
  ObjectType,                             !- Feature Name 1
  String,                                 !- Feature Data Type 1
  conditioned space;                      !- Feature Value 1

OS:Space,
  {11ace9da-d511-4154-af21-35c1c78041e1}, !- Handle
  conditioned space 1,                    !- Name
  ,                                       !- Space Type Name
  ,                                       !- Default Construction Set Name
  ,                                       !- Default Schedule Set Name
  ,                                       !- Direction of Relative North {deg}
  ,                                       !- X Origin {m}
  ,                                       !- Y Origin {m}
  ,                                       !- Z Origin {m}
  ,                                       !- Building Story Name
  {eab9c8df-e0b7-455e-a64f-52cc5716bc31}, !- Thermal Zone Name
  ,                                       !- Part of Total Floor Area
  ,                                       !- Design Specification Outdoor Air Object Name
  ,                                       !- Building Unit Name
  346.03186535424;                        !- Volume {m3}

OS:Schedule:Ruleset,
  {5e99b69a-a47a-4efd-a851-97901a095cfe}, !- Handle
  heating setpoint,                       !- Name
  {d490aa51-9855-4563-8ae7-a32f496fffe5}, !- Schedule Type Limits Name
  {33e10dbc-a65f-44b1-84ad-8265d426fc6f}; !- Default Day Schedule Name

OS:Schedule:Day,
  {33e10dbc-a65f-44b1-84ad-8265d426fc6f}, !- Handle
  heating setpoint default day,           !- Name
  {d490aa51-9855-4563-8ae7-a32f496fffe5}, !- Schedule Type Limits Name
  ,                                       !- Interpolate to Timestep
  24,                                     !- Hour 1
  0,                                      !- Minute 1
  0;                                      !- Value Until Time 1

OS:Schedule:Rule,
  {d53928ae-9233-4115-aa2b-65cac387c13e}, !- Handle
  heating setpoint allday rule,           !- Name
  {5e99b69a-a47a-4efd-a851-97901a095cfe}, !- Schedule Ruleset Name
  0,                                      !- Rule Order
  {418edb4d-baee-419b-8660-ad98630e8d2e}, !- Day Schedule Name
  Yes,                                    !- Apply Sunday
  Yes,                                    !- Apply Monday
  Yes,                                    !- Apply Tuesday
  Yes,                                    !- Apply Wednesday
  Yes,                                    !- Apply Thursday
  Yes,                                    !- Apply Friday
  Yes,                                    !- Apply Saturday
  DateRange,                              !- Date Specification Type
  1,                                      !- Start Month
  1,                                      !- Start Day
  12,                                     !- End Month
  31;                                     !- End Day

OS:Schedule:Day,
  {418edb4d-baee-419b-8660-ad98630e8d2e}, !- Handle
  heating setpoint day,                   !- Name
  {d490aa51-9855-4563-8ae7-a32f496fffe5}, !- Schedule Type Limits Name
  ,                                       !- Interpolate to Timestep
  24,                                     !- Hour 1
  0,                                      !- Minute 1
  20;                                     !- Value Until Time 1

OS:Schedule:Ruleset,
  {67ce979f-a7b5-46af-8f5a-04b782be7332}, !- Handle
  cooling setpoint,                       !- Name
  {d490aa51-9855-4563-8ae7-a32f496fffe5}, !- Schedule Type Limits Name
  {0b8dac07-6253-40ba-8485-332c89417cd7}; !- Default Day Schedule Name

OS:Schedule:Day,
  {0b8dac07-6253-40ba-8485-332c89417cd7}, !- Handle
  cooling setpoint default day,           !- Name
  {d490aa51-9855-4563-8ae7-a32f496fffe5}, !- Schedule Type Limits Name
  ,                                       !- Interpolate to Timestep
  24,                                     !- Hour 1
  0,                                      !- Minute 1
  0;                                      !- Value Until Time 1

OS:Schedule:Rule,
  {24e93c8b-c1e8-40e4-84ef-d35596b98f1f}, !- Handle
  cooling setpoint allday rule,           !- Name
  {67ce979f-a7b5-46af-8f5a-04b782be7332}, !- Schedule Ruleset Name
  0,                                      !- Rule Order
  {16f23aff-bf7c-4f7d-bf0e-c7e1ccbb5d98}, !- Day Schedule Name
  Yes,                                    !- Apply Sunday
  Yes,                                    !- Apply Monday
  Yes,                                    !- Apply Tuesday
  Yes,                                    !- Apply Wednesday
  Yes,                                    !- Apply Thursday
  Yes,                                    !- Apply Friday
  Yes,                                    !- Apply Saturday
  DateRange,                              !- Date Specification Type
  1,                                      !- Start Month
  1,                                      !- Start Day
  12,                                     !- End Month
  31;                                     !- End Day

OS:Schedule:Day,
  {16f23aff-bf7c-4f7d-bf0e-c7e1ccbb5d98}, !- Handle
  cooling setpoint day,                   !- Name
  {d490aa51-9855-4563-8ae7-a32f496fffe5}, !- Schedule Type Limits Name
  ,                                       !- Interpolate to Timestep
  24,                                     !- Hour 1
  0,                                      !- Minute 1
  25.5555555555556;                       !- Value Until Time 1

OS:ThermostatSetpoint:DualSetpoint,
  {dd416583-468a-4f3b-99b8-e6b7b654e75c}, !- Handle
  conditioned space temperature setpoint, !- Name
  {5e99b69a-a47a-4efd-a851-97901a095cfe}, !- Heating Setpoint Temperature Schedule Name
  {67ce979f-a7b5-46af-8f5a-04b782be7332}, !- Cooling Setpoint Temperature Schedule Name
  0;                                      !- Temperature Difference Between Cutout And Setpoint {deltaC}

OS:ScheduleTypeLimits,
  {d490aa51-9855-4563-8ae7-a32f496fffe5}, !- Handle
  Temperature,                            !- Name
  ,                                       !- Lower Limit Value
  ,                                       !- Upper Limit Value
  Continuous,                             !- Numeric Type
  Temperature;                            !- Unit Type

OS:Surface,
  {3c31d834-fba1-479a-85aa-7a6803b8d4e0}, !- Handle
  Roof1,                                  !- Name
  RoofCeiling,                            !- Surface Type
  {294b45e8-d611-4525-9126-d34d00e07d5f}, !- Construction Name
  {5d58318c-905c-4245-9237-f749e0ba8738}, !- Space Name
  Outdoors,                               !- Outside Boundary Condition
  ,                                       !- Outside Boundary Condition Object
  SunExposed,                             !- Sun Exposure
  WindExposed,                            !- Wind Exposure
  ,                                       !- View Factor to Ground
  ,                                       !- Number of Vertices
  -25.0448166683368, 35.3267874683368, 2.4384, !- X,Y,Z Vertex 1 {m}
  -25.0448166683368, 27.3603626312596, 6.42161241853859, !- X,Y,Z Vertex 2 {m}
  -16.1380829316632, 27.3603626312596, 6.42161241853859, !- X,Y,Z Vertex 3 {m}
  -16.1380829316632, 35.3267874683368, 2.4384; !- X,Y,Z Vertex 4 {m}

OS:AdditionalProperties,
  {72b5e157-f72b-470c-b352-aca290844a7a}, !- Handle
  {3c31d834-fba1-479a-85aa-7a6803b8d4e0}, !- Object Name
  Length,                                 !- Feature Name 1
  Double,                                 !- Feature Data Type 1
  29.221567377538118,                     !- Feature Value 1
  Width,                                  !- Feature Name 2
  Double,                                 !- Feature Data Type 2
  29.221567377538118,                     !- Feature Value 2
  Azimuth,                                !- Feature Name 3
  Integer,                                !- Feature Data Type 3
  0,                                      !- Feature Value 3
  Tilt,                                   !- Feature Name 4
  Double,                                 !- Feature Data Type 4
  0.5,                                    !- Feature Value 4
  SurfaceType,                            !- Feature Name 5
  String,                                 !- Feature Data Type 5
  Roof;                                   !- Feature Value 5

OS:ThermalZone,
  {5518482d-241f-4aff-b051-b7632381ccf2}, !- Handle
  attic - vented,                         !- Name
  1,                                      !- Multiplier
  ,                                       !- Ceiling Height {m}
  126.002877704413,                       !- Volume {m3}
  ,                                       !- Floor Area {m2}
  ,                                       !- Zone Inside Convection Algorithm
  ,                                       !- Zone Outside Convection Algorithm
  ,                                       !- Zone Conditioning Equipment List Name
  {1c4c71df-800a-4275-a3bf-f0912538b38e}, !- Zone Air Inlet Port List
  {24b9d072-5d1f-4653-821a-c4a5af15b8a8}, !- Zone Air Exhaust Port List
  {6239c28e-a618-4991-a5d8-363466c7b421}, !- Zone Air Node Name
  {ecde7d14-f0bb-46d7-ac7b-9369a14a99a9}, !- Zone Return Air Port List
  ,                                       !- Primary Daylighting Control Name
  ,                                       !- Fraction of Zone Controlled by Primary Daylighting Control
  ,                                       !- Secondary Daylighting Control Name
  ,                                       !- Fraction of Zone Controlled by Secondary Daylighting Control
  ,                                       !- Illuminance Map Name
  ,                                       !- Group Rendering Name
  ,                                       !- Thermostat Name
  No;                                     !- Use Ideal Air Loads

OS:Node,
  {eb605666-bf90-46c2-b080-f87044f58576}, !- Handle
  Node 2,                                 !- Name
  {6239c28e-a618-4991-a5d8-363466c7b421}, !- Inlet Port
  ;                                       !- Outlet Port

OS:Connection,
  {6239c28e-a618-4991-a5d8-363466c7b421}, !- Handle
  {5518482d-241f-4aff-b051-b7632381ccf2}, !- Source Object
  11,                                     !- Outlet Port
  {eb605666-bf90-46c2-b080-f87044f58576}, !- Target Object
  2;                                      !- Inlet Port

OS:PortList,
  {1c4c71df-800a-4275-a3bf-f0912538b38e}, !- Handle
  {5518482d-241f-4aff-b051-b7632381ccf2}; !- HVAC Component

OS:PortList,
  {24b9d072-5d1f-4653-821a-c4a5af15b8a8}, !- Handle
  {5518482d-241f-4aff-b051-b7632381ccf2}; !- HVAC Component

OS:PortList,
  {ecde7d14-f0bb-46d7-ac7b-9369a14a99a9}, !- Handle
  {5518482d-241f-4aff-b051-b7632381ccf2}; !- HVAC Component

OS:Sizing:Zone,
  {c11d4f20-d774-4879-84c1-034ef8344f3e}, !- Handle
  {5518482d-241f-4aff-b051-b7632381ccf2}, !- Zone or ZoneList Name
  SupplyAirTemperature,                   !- Zone Cooling Design Supply Air Temperature Input Method
  14,                                     !- Zone Cooling Design Supply Air Temperature {C}
  11.11,                                  !- Zone Cooling Design Supply Air Temperature Difference {deltaC}
  SupplyAirTemperature,                   !- Zone Heating Design Supply Air Temperature Input Method
  40,                                     !- Zone Heating Design Supply Air Temperature {C}
  11.11,                                  !- Zone Heating Design Supply Air Temperature Difference {deltaC}
  0.0085,                                 !- Zone Cooling Design Supply Air Humidity Ratio {kg-H2O/kg-air}
  0.008,                                  !- Zone Heating Design Supply Air Humidity Ratio {kg-H2O/kg-air}
  ,                                       !- Zone Heating Sizing Factor
  ,                                       !- Zone Cooling Sizing Factor
  DesignDay,                              !- Cooling Design Air Flow Method
  ,                                       !- Cooling Design Air Flow Rate {m3/s}
  ,                                       !- Cooling Minimum Air Flow per Zone Floor Area {m3/s-m2}
  ,                                       !- Cooling Minimum Air Flow {m3/s}
  ,                                       !- Cooling Minimum Air Flow Fraction
  DesignDay,                              !- Heating Design Air Flow Method
  ,                                       !- Heating Design Air Flow Rate {m3/s}
  ,                                       !- Heating Maximum Air Flow per Zone Floor Area {m3/s-m2}
  ,                                       !- Heating Maximum Air Flow {m3/s}
  ,                                       !- Heating Maximum Air Flow Fraction
  No,                                     !- Account for Dedicated Outdoor Air System
  NeutralSupplyAir,                       !- Dedicated Outdoor Air System Control Strategy
  autosize,                               !- Dedicated Outdoor Air Low Setpoint Temperature for Design {C}
  autosize,                               !- Dedicated Outdoor Air High Setpoint Temperature for Design {C}
  Sensible Load Only No Latent Load,      !- Zone Load Sizing Method
  HumidityRatioDifference,                !- Zone Latent Cooling Design Supply Air Humidity Ratio Input Method
  ,                                       !- Zone Dehumidification Design Supply Air Humidity Ratio {kgWater/kgDryAir}
  0.005,                                  !- Zone Cooling Design Supply Air Humidity Ratio Difference {kgWater/kgDryAir}
  HumidityRatioDifference,                !- Zone Latent Heating Design Supply Air Humidity Ratio Input Method
  ,                                       !- Zone Humidification Design Supply Air Humidity Ratio {kgWater/kgDryAir}
  0.005,                                  !- Zone Humidification Design Supply Air Humidity Ratio Difference {kgWater/kgDryAir}
  ,                                       !- Zone Humidistat Dehumidification Set Point Schedule Name
  ,                                       !- Zone Humidistat Humidification Set Point Schedule Name
  ,                                       !- Design Zone Air Distribution Effectiveness in Cooling Mode
  ,                                       !- Design Zone Air Distribution Effectiveness in Heating Mode
  ,                                       !- Design Zone Secondary Recirculation Fraction {dimensionless}
  ,                                       !- Design Minimum Zone Ventilation Efficiency {dimensionless}
  Coincident;                             !- Sizing Option

OS:ZoneHVAC:EquipmentList,
  {485adc7f-2515-4680-8976-0fa1fbe39133}, !- Handle
  Zone HVAC Equipment List 2,             !- Name
  {5518482d-241f-4aff-b051-b7632381ccf2}; !- Thermal Zone

OS:AdditionalProperties,
  {6a23b9be-03c7-4464-be03-c382e13a14b0}, !- Handle
  {5518482d-241f-4aff-b051-b7632381ccf2}, !- Object Name
  ObjectType,                             !- Feature Name 1
  String,                                 !- Feature Data Type 1
  attic - vented;                         !- Feature Value 1

OS:Space,
  {5d58318c-905c-4245-9237-f749e0ba8738}, !- Handle
  attic - vented 1,                       !- Name
  ,                                       !- Space Type Name
  ,                                       !- Default Construction Set Name
  ,                                       !- Default Schedule Set Name
  ,                                       !- Direction of Relative North {deg}
  ,                                       !- X Origin {m}
  ,                                       !- Y Origin {m}
  ,                                       !- Z Origin {m}
  ,                                       !- Building Story Name
  {5518482d-241f-4aff-b051-b7632381ccf2}, !- Thermal Zone Name
  ,                                       !- Part of Total Floor Area
  ,                                       !- Design Specification Outdoor Air Object Name
  ,                                       !- Building Unit Name
  126.002877704413;                       !- Volume {m3}

OS:Material,
  {7476db3a-514d-4018-99ab-de9021962ba1}, !- Handle
  asphalt or fiberglass shingles,         !- Name
  Rough,                                  !- Roughness
  0.00635,                                !- Thickness {m}
  0.162714,                               !- Conductivity {W/m-K}
  1121.4,                                 !- Density {kg/m3}
  1465.45,                                !- Specific Heat {J/kg-K}
  0.9,                                    !- Thermal Absorptance
  0.85,                                   !- Solar Absorptance