
OS:Version,
  {d1fae4fd-9dcb-45db-84ed-52c0dbb47e53}, !- Handle
  3.9.0;                                  !- Version Identifier

OS:SimulationControl,
  {830efadc-3f54-46ac-a9c3-b8b691f2969a}, !- Handle
  ,                                       !- Do Zone Sizing Calculation
  ,                                       !- Do System Sizing Calculation
  ,                                       !- Do Plant Sizing Calculation
  No;                                     !- Run Simulation for Sizing Periods

OS:Timestep,
  {352801ba-1b99-45af-b620-7991fa82935c}, !- Handle
  1;                                      !- Number of Timesteps per Hour

OS:ShadowCalculation,
  {9dfe0981-48c8-49df-b117-12e1ebb51677}, !- Handle
  PolygonClipping,                        !- Shading Calculation Method
  ,                                       !- Shading Calculation Update Frequency Method
  20,                                     !- Shading Calculation Update Frequency
  200,                                    !- Maximum Figures in Shadow Overlap Calculations
  ,                                       !- Polygon Clipping Algorithm
  512,                                    !- Pixel Counting Resolution
  ,                                       !- Sky Diffuse Modeling Algorithm
  No,                                     !- Output External Shading Calculation Results
  No,                                     !- Disable Self-Shading Within Shading Zone Groups
  No;                                     !- Disable Self-Shading From Shading Zone Groups to Other Zones

OS:SurfaceConvectionAlgorithm:Outside,
  {b2622f1c-3e60-44cf-a5a4-d2aca7a4ae93}, !- Handle
  DOE-2;                                  !- Algorithm

OS:SurfaceConvectionAlgorithm:Inside,
  {d40762b7-74d3-408d-91ae-e3023acf9427}, !- Handle
  TARP;                                   !- Algorithm

OS:ZoneCapacitanceMultiplier:ResearchSpecial,
  {c816d838-0d92-40af-b45e-c379fe20022e}, !- Handle
  7,                                      !- Temperature Capacity Multiplier
  15,                                     !- Humidity Capacity Multiplier
  ;                                       !- Carbon Dioxide Capacity Multiplier

OS:ConvergenceLimits,
  {896248ad-f876-4f6c-8764-96a236af881e}, !- Handle
  0;                                      !- Minimum System Timestep {minutes}

OS:RunPeriod,
  {cdc7c80a-d757-46fa-8341-fe403020fb46}, !- Handle
  Run Period 1,                           !- Name
  1,                                      !- Begin Month
  1,                                      !- Begin Day of Month
  12,                                     !- End Month
  31,                                     !- End Day of Month
  ,                                       !- Use Weather File Holidays and Special Days
  ,                                       !- Use Weather File Daylight Saving Period
  ,                                       !- Apply Weekend Holiday Rule
  ,                                       !- Use Weather File Rain Indicators
  ,                                       !- Use Weather File Snow Indicators
  ;                                       !- Number of Times Runperiod to be Repeated

OS:PerformancePrecisionTradeoffs,
  {72326804-67b3-4adc-a968-39e7415e3516}, !- Handle
  ,                                       !- Use Coil Direct Solutions
  CarrollMRT;                             !- Zone Radiant Exchange Algorithm

OS:WeatherFile,
  {55d81fc3-4ef5-44b2-ae98-5396fee9ad31}, !- Handle
  Buffalo Niagara Intl Ap,                !- City
  NY,                                     !- State Province Region
  USA,                                    !- Country
  TMY3,                                   !- Data Source
  725280,                                 !- WMO Number
  42.93,                                  !- Latitude {deg}
  -78.73,                                 !- Longitude {deg}
  -5,                                     !- Time Zone {hr}
  215,                                    !- Elevation {m}
  /Users/nmoore/github/urbanopt-example-geojson-project/example_project/weather/USA_NY_Buffalo-Greater.Buffalo.Intl.AP.725280_TMY3.epw, !- Url
  6B50E0FF,                               !- Checksum
  ,                                       !- Start Date Actual Year
  Sunday;                                 !- Start Day of Week

OS:YearDescription,
  {124130fa-6e36-4b3b-9b69-e94b791af1be}, !- Handle
  2007,                                   !- Calendar Year
  ,                                       !- Day of Week for Start Day
  ;                                       !- Is Leap Year

OS:Site,
  {b5c1534e-2e0c-4ab6-b622-27b6076e7d66}, !- Handle
  Buffalo Niagara Intl Ap_NY,             !- Name
  42.93,                                  !- Latitude {deg}
  -78.73,                                 !- Longitude {deg}
  -5,                                     !- Time Zone {hr}
  215,                                    !- Elevation {m}
  Suburbs,                                !- Terrain
  Yes;                                    !- Keep Site Location Information

OS:RunPeriodControl:DaylightSavingTime,
  {0eb71585-b49c-4ca0-ab74-395ef652b282}, !- Handle
  Mar 12,                                 !- Start Date
  Nov 5;                                  !- End Date

OS:Site:GroundTemperature:Shallow,
  {ebc88ecc-11d6-48a2-bc47-14a4bf7a8c7f}, !- Handle
  4.30207395723828,                       !- January Surface Ground Temperature {C}
  2.29327249652502,                       !- February Surface Ground Temperature {C}
  2.13240047156047,                       !- March Surface Ground Temperature {C}
  3.08567940719286,                       !- April Surface Ground Temperature {C}
  6.91256312497526,                       !- May Surface Ground Temperature {C}
  10.7216195949507,                       !- June Surface Ground Temperature {C}
  14.0238679822574,                       !- July Surface Ground Temperature {C}
  16.1157611184724,                       !- August Surface Ground Temperature {C}
  16.2934789303462,                       !- September Surface Ground Temperature {C}
  14.5920754632847,                       !- October Surface Ground Temperature {C}
  11.374036348653,                        !- November Surface Ground Temperature {C}
  7.68182621661674;                       !- December Surface Ground Temperature {C}

OS:ThermalZone,
  {17e2f47c-f0f9-4adc-8eab-f29f13d76880}, !- Handle
  conditioned space,                      !- Name
  1,                                      !- Multiplier
  ,                                       !- Ceiling Height {m}
  346.03186535424,                        !- Volume {m3}
  ,                                       !- Floor Area {m2}
  ,                                       !- Zone Inside Convection Algorithm
  ,                                       !- Zone Outside Convection Algorithm
  ,                                       !- Zone Conditioning Equipment List Name
  {f8a52f87-ea0a-465c-a855-4dfbbcd53a20}, !- Zone Air Inlet Port List
  {d1e3c38f-2418-45cf-9e3a-931fc43b3e4d}, !- Zone Air Exhaust Port List
  {2e4d7cc8-fbd6-47b3-9c58-41f0221b4d9b}, !- Zone Air Node Name
  {ba7cb70d-267f-4128-9a78-c0e404364b25}, !- Zone Return Air Port List
  ,                                       !- Primary Daylighting Control Name
  ,                                       !- Fraction of Zone Controlled by Primary Daylighting Control
  ,                                       !- Secondary Daylighting Control Name
  ,                                       !- Fraction of Zone Controlled by Secondary Daylighting Control
  ,                                       !- Illuminance Map Name
  ,                                       !- Group Rendering Name
  {ba7e2c12-f325-43dc-b5a9-3e4669fd54ef}, !- Thermostat Name
  No;                                     !- Use Ideal Air Loads

OS:Node,
  {83a117eb-289e-40f1-b54e-73acac1c1ef4}, !- Handle
  Node 1,                                 !- Name
  {2e4d7cc8-fbd6-47b3-9c58-41f0221b4d9b}, !- Inlet Port
  ;                                       !- Outlet Port

OS:Connection,
  {2e4d7cc8-fbd6-47b3-9c58-41f0221b4d9b}, !- Handle
  {17e2f47c-f0f9-4adc-8eab-f29f13d76880}, !- Source Object
  11,                                     !- Outlet Port
  {83a117eb-289e-40f1-b54e-73acac1c1ef4}, !- Target Object
  2;                                      !- Inlet Port

OS:PortList,
  {f8a52f87-ea0a-465c-a855-4dfbbcd53a20}, !- Handle
  {17e2f47c-f0f9-4adc-8eab-f29f13d76880}, !- HVAC Component
  {882001aa-2d1d-4983-bb16-c2a04ae8139b}; !- Port 1

OS:PortList,
  {d1e3c38f-2418-45cf-9e3a-931fc43b3e4d}, !- Handle
  {17e2f47c-f0f9-4adc-8eab-f29f13d76880}; !- HVAC Component

OS:PortList,
  {ba7cb70d-267f-4128-9a78-c0e404364b25}, !- Handle
  {17e2f47c-f0f9-4adc-8eab-f29f13d76880}, !- HVAC Component
  {616bfb21-ac59-4a10-9db1-417d8f1d7e49}; !- Port 1

OS:Sizing:Zone,
  {285b57e7-134c-42e7-87bb-48c83d4d8499}, !- Handle
  {17e2f47c-f0f9-4adc-8eab-f29f13d76880}, !- Zone or ZoneList Name
  SupplyAirTemperature,                   !- Zone Cooling Design Supply Air Temperature Input Method
  14,                                     !- Zone Cooling Design Supply Air Temperature {C}
  11.11,                                  !- Zone Cooling Design Supply Air Temperature Difference {deltaC}
  SupplyAirTemperature,                   !- Zone Heating Design Supply Air Temperature Input Method
  40,                                     !- Zone Heating Design Supply Air Temperature {C}
  11.11,                                  !- Zone Heating Design Supply Air Temperature Difference {deltaC}
  0.0085,                                 !- Zone Cooling Design Supply Air Humidity Ratio {kg-H2O/kg-air}
  0.008,                                  !- Zone Heating Design Supply Air Humidity Ratio {kg-H2O/kg-air}
  ,                                       !- Zone Heating Sizing Factor
  ,                                       !- Zone Cooling Sizing Factor
  DesignDay,                              !- Cooling Design Air Flow Method
  ,                                       !- Cooling Design Air Flow Rate {m3/s}
  ,                                       !- Cooling Minimum Air Flow per Zone Floor Area {m3/s-m2}
  ,                                       !- Cooling Minimum Air Flow {m3/s}
  ,                                       !- Cooling Minimum Air Flow Fraction
  DesignDay,                              !- Heating Design Air Flow Method
  ,                                       !- Heating Design Air Flow Rate {m3/s}
  ,                                       !- Heating Maximum Air Flow per Zone Floor Area {m3/s-m2}
  ,                                       !- Heating Maximum Air Flow {m3/s}
  ,                                       !- Heating Maximum Air Flow Fraction
  No,                                     !- Account for Dedicated Outdoor Air System
  NeutralSupplyAir,                       !- Dedicated Outdoor Air System Control Strategy
  autosize,                               !- Dedicated Outdoor Air Low Setpoint Temperature for Design {C}
  autosize,                               !- Dedicated Outdoor Air High Setpoint Temperature for Design {C}
  Sensible Load Only No Latent Load,      !- Zone Load Sizing Method
  HumidityRatioDifference,                !- Zone Latent Cooling Design Supply Air Humidity Ratio Input Method
  ,                                       !- Zone Dehumidification Design Supply Air Humidity Ratio {kgWater/kgDryAir}
  0.005,                                  !- Zone Cooling Design Supply Air Humidity Ratio Difference {kgWater/kgDryAir}
  HumidityRatioDifference,                !- Zone Latent Heating Design Supply Air Humidity Ratio Input Method
  ,                                       !- Zone Humidification Design Supply Air Humidity Ratio {kgWater/kgDryAir}
  0.005,                                  !- Zone Humidification Design Supply Air Humidity Ratio Difference {kgWater/kgDryAir}
  ,                                       !- Zone Humidistat Dehumidification Set Point Schedule Name
  ,                                       !- Zone Humidistat Humidification Set Point Schedule Name
  ,                                       !- Design Zone Air Distribution Effectiveness in Cooling Mode
  ,                                       !- Design Zone Air Distribution Effectiveness in Heating Mode
  ,                                       !- Design Zone Secondary Recirculation Fraction {dimensionless}
  ,                                       !- Design Minimum Zone Ventilation Efficiency {dimensionless}
  Coincident;                             !- Sizing Option

OS:ZoneHVAC:EquipmentList,
  {d09e6eac-0d82-4ddb-80de-6afc124b3efe}, !- Handle
  Zone HVAC Equipment List 1,             !- Name
  {17e2f47c-f0f9-4adc-8eab-f29f13d76880}, !- Thermal Zone
  ,                                       !- Load Distribution Scheme
  {80dda40e-fb43-4a52-9552-72daa9e67d15}, !- Zone Equipment 1
  1,                                      !- Zone Equipment Cooling Sequence 1
  1,                                      !- Zone Equipment Heating or No-Load Sequence 1
  {c0925a44-888f-4917-beae-722650f147a8}, !- Zone Equipment Sequential Cooling Fraction Schedule Name 1
  {6454c6fb-c9fc-42f1-8cb7-eab934af0034}; !- Zone Equipment Sequential Heating Fraction Schedule Name 1

OS:AdditionalProperties,
  {21643466-27a3-485f-8409-118813d9f172}, !- Handle
  {17e2f47c-f0f9-4adc-8eab-f29f13d76880}, !- Object Name
  ObjectType,                             !- Feature Name 1
  String,                                 !- Feature Data Type 1
  conditioned space;                      !- Feature Value 1

OS:Space,
  {83406e2b-e2d9-4307-a6c0-da0fe242865a}, !- Handle
  conditioned space 1,                    !- Name
  ,                                       !- Space Type Name
  ,                                       !- Default Construction Set Name
  ,                                       !- Default Schedule Set Name
  ,                                       !- Direction of Relative North {deg}
  ,                                       !- X Origin {m}
  ,                                       !- Y Origin {m}
  ,                                       !- Z Origin {m}
  ,                                       !- Building Story Name
  {17e2f47c-f0f9-4adc-8eab-f29f13d76880}, !- Thermal Zone Name
  ,                                       !- Part of Total Floor Area
  ,                                       !- Design Specification Outdoor Air Object Name
  ,                                       !- Building Unit Name
  346.03186535424;                        !- Volume {m3}

OS:Schedule:Ruleset,
  {cb3c9b3c-0659-4977-b8b6-d1a28c29cf3f}, !- Handle
  heating setpoint,                       !- Name
  {29831cf9-c4a5-4470-9345-5a0fc39f2048}, !- Schedule Type Limits Name
  {d2e170cb-6469-4da3-b4a1-93369a8152c7}; !- Default Day Schedule Name

OS:Schedule:Day,
  {d2e170cb-6469-4da3-b4a1-93369a8152c7}, !- Handle
  heating setpoint default day,           !- Name
  {29831cf9-c4a5-4470-9345-5a0fc39f2048}, !- Schedule Type Limits Name
  ,                                       !- Interpolate to Timestep
  24,                                     !- Hour 1
  0,                                      !- Minute 1
  0;                                      !- Value Until Time 1

OS:Schedule:Rule,
  {fd70d2a8-c6ab-48df-a371-a9bbfe24bcae}, !- Handle
  heating setpoint allday rule,           !- Name
  {cb3c9b3c-0659-4977-b8b6-d1a28c29cf3f}, !- Schedule Ruleset Name
  0,                                      !- Rule Order
  {a9b0085f-90b5-4504-9064-7ec4d84733a6}, !- Day Schedule Name
  Yes,                                    !- Apply Sunday
  Yes,                                    !- Apply Monday
  Yes,                                    !- Apply Tuesday
  Yes,                                    !- Apply Wednesday
  Yes,                                    !- Apply Thursday
  Yes,                                    !- Apply Friday
  Yes,                                    !- Apply Saturday
  DateRange,                              !- Date Specification Type
  1,                                      !- Start Month
  1,                                      !- Start Day
  12,                                     !- End Month
  31;                                     !- End Day

OS:Schedule:Day,
  {a9b0085f-90b5-4504-9064-7ec4d84733a6}, !- Handle
  heating setpoint day,                   !- Name
  {29831cf9-c4a5-4470-9345-5a0fc39f2048}, !- Schedule Type Limits Name
  ,                                       !- Interpolate to Timestep
  24,                                     !- Hour 1
  0,                                      !- Minute 1
  20;                                     !- Value Until Time 1

OS:Schedule:Ruleset,
  {b04f833d-eaf5-4833-b695-4fbbb511039c}, !- Handle
  cooling setpoint,                       !- Name
  {29831cf9-c4a5-4470-9345-5a0fc39f2048}, !- Schedule Type Limits Name
  {6a4e9930-bb28-45e7-a3b6-b7d9d99f3478}; !- Default Day Schedule Name

OS:Schedule:Day,
  {6a4e9930-bb28-45e7-a3b6-b7d9d99f3478}, !- Handle
  cooling setpoint default day,           !- Name
  {29831cf9-c4a5-4470-9345-5a0fc39f2048}, !- Schedule Type Limits Name
  ,                                       !- Interpolate to Timestep
  24,                                     !- Hour 1
  0,                                      !- Minute 1
  0;                                      !- Value Until Time 1

OS:Schedule:Rule,
  {d3a9f4bb-a87c-4757-975e-618968495183}, !- Handle
  cooling setpoint allday rule,           !- Name
  {b04f833d-eaf5-4833-b695-4fbbb511039c}, !- Schedule Ruleset Name
  0,                                      !- Rule Order
  {23ead259-3476-41a3-94ca-0c7b784243ff}, !- Day Schedule Name
  Yes,                                    !- Apply Sunday
  Yes,                                    !- Apply Monday
  Yes,                                    !- Apply Tuesday
  Yes,                                    !- Apply Wednesday
  Yes,                                    !- Apply Thursday
  Yes,                                    !- Apply Friday
  Yes,                                    !- Apply Saturday
  DateRange,                              !- Date Specification Type
  1,                                      !- Start Month
  1,                                      !- Start Day
  12,                                     !- End Month
  31;                                     !- End Day

OS:Schedule:Day,
  {23ead259-3476-41a3-94ca-0c7b784243ff}, !- Handle
  cooling setpoint day,                   !- Name
  {29831cf9-c4a5-4470-9345-5a0fc39f2048}, !- Schedule Type Limits Name
  ,                                       !- Interpolate to Timestep
  24,                                     !- Hour 1
  0,                                      !- Minute 1
  25.5555555555556;                       !- Value Until Time 1

OS:ThermostatSetpoint:DualSetpoint,
  {ba7e2c12-f325-43dc-b5a9-3e4669fd54ef}, !- Handle
  conditioned space temperature setpoint, !- Name
  {cb3c9b3c-0659-4977-b8b6-d1a28c29cf3f}, !- Heating Setpoint Temperature Schedule Name
  {b04f833d-eaf5-4833-b695-4fbbb511039c}, !- Cooling Setpoint Temperature Schedule Name
  0;                                      !- Temperature Difference Between Cutout And Setpoint {deltaC}

OS:ScheduleTypeLimits,
  {29831cf9-c4a5-4470-9345-5a0fc39f2048}, !- Handle
  Temperature,                            !- Name
  ,                                       !- Lower Limit Value
  ,                                       !- Upper Limit Value
  Continuous,                             !- Numeric Type
  Temperature;                            !- Unit Type

OS:Surface,
  {0af469da-cd48-4cfe-ab6b-131f21d601c1}, !- Handle
  Roof1,                                  !- Name
  RoofCeiling,                            !- Surface Type
  {74c4d831-9660-4b75-a0ec-7ad48937c643}, !- Construction Name
  {7d3f588e-57ff-41b4-94cf-a8a6cb7fbc2e}, !- Space Name
  Outdoors,                               !- Outside Boundary Condition
  ,                                       !- Outside Boundary Condition Object
  SunExposed,                             !- Sun Exposure
  WindExposed,                            !- Wind Exposure
  ,                                       !- View Factor to Ground
  ,                                       !- Number of Vertices
  -25.0448166683368, 35.3267874683368, 2.4384, !- X,Y,Z Vertex 1 {m}
  -25.0448166683368, 27.3603626312596, 6.42161241853859, !- X,Y,Z Vertex 2 {m}
  -16.1380829316632, 27.3603626312596, 6.42161241853859, !- X,Y,Z Vertex 3 {m}
  -16.1380829316632, 35.3267874683368, 2.4384; !- X,Y,Z Vertex 4 {m}

OS:AdditionalProperties,
  {9b969441-9f2f-4ce1-b3ea-fa94ebb26b5b}, !- Handle
  {0af469da-cd48-4cfe-ab6b-131f21d601c1}, !- Object Name
  Length,                                 !- Feature Name 1
  Double,                                 !- Feature Data Type 1
  29.221567377538118,                     !- Feature Value 1
  Width,                                  !- Feature Name 2
  Double,                                 !- Feature Data Type 2
  29.221567377538118,                     !- Feature Value 2
  Azimuth,                                !- Feature Name 3
  Integer,                                !- Feature Data Type 3
  0,                                      !- Feature Value 3
  Tilt,                                   !- Feature Name 4
  Double,                                 !- Feature Data Type 4
  0.5,                                    !- Feature Value 4
  SurfaceType,                            !- Feature Name 5
  String,                                 !- Feature Data Type 5
  Roof;                                   !- Feature Value 5

OS:ThermalZone,
  {9c15d875-01a4-4174-9a67-c86776193261}, !- Handle
  attic - vented,                         !- Name
  1,                                      !- Multiplier
  ,                                       !- Ceiling Height {m}
  126.002877704413,                       !- Volume {m3}
  ,                                       !- Floor Area {m2}
  ,                                       !- Zone Inside Convection Algorithm
  ,                                       !- Zone Outside Convection Algorithm
  ,                                       !- Zone Conditioning Equipment List Name
  {ab247d9d-615a-4215-819c-b694bbed6a0e}, !- Zone Air Inlet Port List
  {00af000a-3565-4701-b66c-90c58b3f3048}, !- Zone Air Exhaust Port List
  {1a8fd05b-e9bd-4f33-bf12-9446c78f9135}, !- Zone Air Node Name
  {0d4de591-cc9e-4414-a710-cfb80cfdd806}, !- Zone Return Air Port List
  ,                                       !- Primary Daylighting Control Name
  ,                                       !- Fraction of Zone Controlled by Primary Daylighting Control
  ,                                       !- Secondary Daylighting Control Name
  ,                                       !- Fraction of Zone Controlled by Secondary Daylighting Control
  ,                                       !- Illuminance Map Name
  ,                                       !- Group Rendering Name
  ,                                       !- Thermostat Name
  No;                                     !- Use Ideal Air Loads

OS:Node,
  {33ba990f-5dcb-4932-ab73-33fe4054abb7}, !- Handle
  Node 2,                                 !- Name
  {1a8fd05b-e9bd-4f33-bf12-9446c78f9135}, !- Inlet Port
  ;                                       !- Outlet Port

OS:Connection,
  {1a8fd05b-e9bd-4f33-bf12-9446c78f9135}, !- Handle
  {9c15d875-01a4-4174-9a67-c86776193261}, !- Source Object
  11,                                     !- Outlet Port
  {33ba990f-5dcb-4932-ab73-33fe4054abb7}, !- Target Object
  2;                                      !- Inlet Port

OS:PortList,
  {ab247d9d-615a-4215-819c-b694bbed6a0e}, !- Handle
  {9c15d875-01a4-4174-9a67-c86776193261}; !- HVAC Component

OS:PortList,
  {00af000a-3565-4701-b66c-90c58b3f3048}, !- Handle
  {9c15d875-01a4-4174-9a67-c86776193261}; !- HVAC Component

OS:PortList,
  {0d4de591-cc9e-4414-a710-cfb80cfdd806}, !- Handle
  {9c15d875-01a4-4174-9a67-c86776193261}; !- HVAC Component

OS:Sizing:Zone,
  {bd56a571-3b44-4526-b8be-e07ce3666a5c}, !- Handle
  {9c15d875-01a4-4174-9a67-c86776193261}, !- Zone or ZoneList Name
  SupplyAirTemperature,                   !- Zone Cooling Design Supply Air Temperature Input Method
  14,                                     !- Zone Cooling Design Supply Air Temperature {C}
  11.11,                                  !- Zone Cooling Design Supply Air Temperature Difference {deltaC}
  SupplyAirTemperature,                   !- Zone Heating Design Supply Air Temperature Input Method
  40,                                     !- Zone Heating Design Supply Air Temperature {C}
  11.11,                                  !- Zone Heating Design Supply Air Temperature Difference {deltaC}
  0.0085,                                 !- Zone Cooling Design Supply Air Humidity Ratio {kg-H2O/kg-air}
  0.008,                                  !- Zone Heating Design Supply Air Humidity Ratio {kg-H2O/kg-air}
  ,                                       !- Zone Heating Sizing Factor
  ,                                       !- Zone Cooling Sizing Factor
  DesignDay,                              !- Cooling Design Air Flow Method
  ,                                       !- Cooling Design Air Flow Rate {m3/s}
  ,                                       !- Cooling Minimum Air Flow per Zone Floor Area {m3/s-m2}
  ,                                       !- Cooling Minimum Air Flow {m3/s}
  ,                                       !- Cooling Minimum Air Flow Fraction
  DesignDay,                              !- Heating Design Air Flow Method
  ,                                       !- Heating Design Air Flow Rate {m3/s}
  ,                                       !- Heating Maximum Air Flow per Zone Floor Area {m3/s-m2}
  ,                                       !- Heating Maximum Air Flow {m3/s}
  ,                                       !- Heating Maximum Air Flow Fraction
  No,                                     !- Account for Dedicated Outdoor Air System
  NeutralSupplyAir,                       !- Dedicated Outdoor Air System Control Strategy
  autosize,                               !- Dedicated Outdoor Air Low Setpoint Temperature for Design {C}
  autosize,                               !- Dedicated Outdoor Air High Setpoint Temperature for Design {C}
  Sensible Load Only No Latent Load,      !- Zone Load Sizing Method
  HumidityRatioDifference,                !- Zone Latent Cooling Design Supply Air Humidity Ratio Input Method
  ,                                       !- Zone Dehumidification Design Supply Air Humidity Ratio {kgWater/kgDryAir}
  0.005,                                  !- Zone Cooling Design Supply Air Humidity Ratio Difference {kgWater/kgDryAir}
  HumidityRatioDifference,                !- Zone Latent Heating Design Supply Air Humidity Ratio Input Method
  ,                                       !- Zone Humidification Design Supply Air Humidity Ratio {kgWater/kgDryAir}
  0.005,                                  !- Zone Humidification Design Supply Air Humidity Ratio Difference {kgWater/kgDryAir}
  ,                                       !- Zone Humidistat Dehumidification Set Point Schedule Name
  ,                                       !- Zone Humidistat Humidification Set Point Schedule Name
  ,                                       !- Design Zone Air Distribution Effectiveness in Cooling Mode
  ,                                       !- Design Zone Air Distribution Effectiveness in Heating Mode
  ,                                       !- Design Zone Secondary Recirculation Fraction {dimensionless}
  ,                                       !- Design Minimum Zone Ventilation Efficiency {dimensionless}
  Coincident;                             !- Sizing Option

OS:ZoneHVAC:EquipmentList,
  {834dbbba-27db-4b12-95c4-2da5629202b0}, !- Handle
  Zone HVAC Equipment List 2,             !- Name
  {9c15d875-01a4-4174-9a67-c86776193261}; !- Thermal Zone

OS:AdditionalProperties,
  {a2919548-5f13-4fc0-a6b5-1bb0cfcc5065}, !- Handle
  {9c15d875-01a4-4174-9a67-c86776193261}, !- Object Name
  ObjectType,                             !- Feature Name 1
  String,                                 !- Feature Data Type 1
  attic - vented;                         !- Feature Value 1

OS:Space,
  {7d3f588e-57ff-41b4-94cf-a8a6cb7fbc2e}, !- Handle
  attic - vented 1,                       !- Name
  ,                                       !- Space Type Name
  ,                                       !- Default Construction Set Name
  ,                                       !- Default Schedule Set Name
  ,                                       !- Direction of Relative North {deg}
  ,                                       !- X Origin {m}
  ,                                       !- Y Origin {m}
  ,                                       !- Z Origin {m}
  ,                                       !- Building Story Name
  {9c15d875-01a4-4174-9a67-c86776193261}, !- Thermal Zone Name
  ,                                       !- Part of Total Floor Area
  ,                                       !- Design Specification Outdoor Air Object Name
  ,                                       !- Building Unit Name
  126.002877704413;                       !- Volume {m3}

OS:Material,
  {c1d6e439-2a07-4c29-9b70-a7b89f40c88d}, !- Handle
  asphalt or fiberglass shingles,         !- Name
  Rough,                                  !- Roughness
  0.00635,                                !- Thickness {m}
  0.162714,                               !- Conductivity {W/m-K}
  1121.4,                                 !- Density {kg/m3}
  1465.45,                                !- Specific Heat {J/kg-K}
  0.9,                                    !- Thermal Absorptance
  0.85,                                   !- Solar Absorptance