
OS:Version,
  {b11ea1fc-839f-4556-b38f-3fbcbe106368}, !- Handle
  3.10.0;                                 !- Version Identifier

OS:SimulationControl,
  {e84204da-8431-4b64-86d0-de35ad0e57d4}, !- Handle
  ,                                       !- Do Zone Sizing Calculation
  ,                                       !- Do System Sizing Calculation
  ,                                       !- Do Plant Sizing Calculation
  No;                                     !- Run Simulation for Sizing Periods

OS:Timestep,
  {e581b8b7-6b72-47c4-af65-8893b614eccf}, !- Handle
  1;                                      !- Number of Timesteps per Hour

OS:ShadowCalculation,
  {fd8144bc-01d1-401e-89d8-336b950d6c28}, !- Handle
  PolygonClipping,                        !- Shading Calculation Method
  ,                                       !- Shading Calculation Update Frequency Method
  20,                                     !- Shading Calculation Update Frequency
  200,                                    !- Maximum Figures in Shadow Overlap Calculations
  ,                                       !- Polygon Clipping Algorithm
  512,                                    !- Pixel Counting Resolution
  ,                                       !- Sky Diffuse Modeling Algorithm
  No,                                     !- Output External Shading Calculation Results
  No,                                     !- Disable Self-Shading Within Shading Zone Groups
  No;                                     !- Disable Self-Shading From Shading Zone Groups to Other Zones

OS:SurfaceConvectionAlgorithm:Outside,
  {e573c66f-42e0-420c-832b-37774d208b6b}, !- Handle
  DOE-2;                                  !- Algorithm

OS:SurfaceConvectionAlgorithm:Inside,
  {640de0e5-99df-43d6-ae0c-a842bec36660}, !- Handle
  TARP;                                   !- Algorithm

OS:ZoneCapacitanceMultiplier:ResearchSpecial,
  {cc66a6a2-9a20-4bd8-b9e9-239738777fd1}, !- Handle
  7,                                      !- Temperature Capacity Multiplier
  15,                                     !- Humidity Capacity Multiplier
  ;                                       !- Carbon Dioxide Capacity Multiplier

OS:ConvergenceLimits,
  {c7716a9d-adcc-436f-993a-643cc979c3a8}, !- Handle
  0;                                      !- Minimum System Timestep {minutes}

OS:RunPeriod,
  {4d876bd0-5afd-4560-90be-dd27751337f8}, !- Handle
  Run Period 1,                           !- Name
  1,                                      !- Begin Month
  1,                                      !- Begin Day of Month
  12,                                     !- End Month
  31,                                     !- End Day of Month
  ,                                       !- Use Weather File Holidays and Special Days
  ,                                       !- Use Weather File Daylight Saving Period
  ,                                       !- Apply Weekend Holiday Rule
  ,                                       !- Use Weather File Rain Indicators
  ,                                       !- Use Weather File Snow Indicators
  ;                                       !- Number of Times Runperiod to be Repeated

OS:PerformancePrecisionTradeoffs,
  {403fcbb2-4395-41ed-bf68-ec794bafafb9}, !- Handle
  ,                                       !- Use Coil Direct Solutions
  CarrollMRT;                             !- Zone Radiant Exchange Algorithm

OS:WeatherFile,
  {02a0b604-4a08-4ab9-a086-f5df7c6ce805}, !- Handle
  Buffalo Niagara Intl Ap,                !- City
  NY,                                     !- State Province Region
  USA,                                    !- Country
  TMY3,                                   !- Data Source
  725280,                                 !- WMO Number
  42.93,                                  !- Latitude {deg}
  -78.73,                                 !- Longitude {deg}
  -5,                                     !- Time Zone {hr}
  215,                                    !- Elevation {m}
  /Users/nmoore/github/urbanopt-example-geojson-project/example_project/weather/USA_NY_Buffalo-Greater.Buffalo.Intl.AP.725280_TMY3.epw, !- Url
  6B50E0FF,                               !- Checksum
  ,                                       !- Start Date Actual Year
  Sunday;                                 !- Start Day of Week

OS:YearDescription,
  {a458ce20-b20d-4c92-9d6e-da00e91da2df}, !- Handle
  2007,                                   !- Calendar Year
  ,                                       !- Day of Week for Start Day
  ;                                       !- Is Leap Year

OS:Site,
  {eae8c946-229d-4222-ad7e-b6f8cb22a9e5}, !- Handle
  Buffalo Niagara Intl Ap_NY,             !- Name
  42.93,                                  !- Latitude {deg}
  -78.73,                                 !- Longitude {deg}
  -5,                                     !- Time Zone {hr}
  215,                                    !- Elevation {m}
  Suburbs,                                !- Terrain
  Yes;                                    !- Keep Site Location Information

OS:RunPeriodControl:DaylightSavingTime,
  {ac625c1a-1041-4f37-801a-815610ab3fa5}, !- Handle
  Mar 12,                                 !- Start Date
  Nov 5;                                  !- End Date

OS:Site:GroundTemperature:Shallow,
  {da3a7879-58a4-4411-9f24-62d8086d623b}, !- Handle
  4.30207395723828,                       !- January Surface Ground Temperature {C}
  2.29327249652502,                       !- February Surface Ground Temperature {C}
  2.13240047156047,                       !- March Surface Ground Temperature {C}
  3.08567940719286,                       !- April Surface Ground Temperature {C}
  6.91256312497526,                       !- May Surface Ground Temperature {C}
  10.7216195949507,                       !- June Surface Ground Temperature {C}
  14.0238679822574,                       !- July Surface Ground Temperature {C}
  16.1157611184724,                       !- August Surface Ground Temperature {C}
  16.2934789303462,                       !- September Surface Ground Temperature {C}
  14.5920754632847,                       !- October Surface Ground Temperature {C}
  11.374036348653,                        !- November Surface Ground Temperature {C}
  7.68182621661674;                       !- December Surface Ground Temperature {C}

OS:ThermalZone,
  {fc5a378a-25d8-4487-b85c-d4709115bba8}, !- Handle
  conditioned space,                      !- Name
  1,                                      !- Multiplier
  ,                                       !- Ceiling Height {m}
  346.03186535424,                        !- Volume {m3}
  ,                                       !- Floor Area {m2}
  ,                                       !- Zone Inside Convection Algorithm
  ,                                       !- Zone Outside Convection Algorithm
  ,                                       !- Zone Conditioning Equipment List Name
  {ad353eae-cd1d-486a-91fa-e4faab6ccefc}, !- Zone Air Inlet Port List
  {a042d294-949b-47ca-b4a0-cc1740f4b0d5}, !- Zone Air Exhaust Port List
  {e1725ec2-1975-45ce-9262-b20b242b8153}, !- Zone Air Node Name
  {81a669f3-7b86-46c7-a006-45355a8f91ec}, !- Zone Return Air Port List
  ,                                       !- Primary Daylighting Control Name
  ,                                       !- Fraction of Zone Controlled by Primary Daylighting Control
  ,                                       !- Secondary Daylighting Control Name
  ,                                       !- Fraction of Zone Controlled by Secondary Daylighting Control
  ,                                       !- Illuminance Map Name
  ,                                       !- Group Rendering Name
  {0dfd7515-bd54-48a6-bae6-231542f311db}, !- Thermostat Name
  No;                                     !- Use Ideal Air Loads

OS:Node,
  {ecd0a394-5050-410b-97d9-065df932ad66}, !- Handle
  Node 1,                                 !- Name
  {e1725ec2-1975-45ce-9262-b20b242b8153}, !- Inlet Port
  ;                                       !- Outlet Port

OS:Connection,
  {e1725ec2-1975-45ce-9262-b20b242b8153}, !- Handle
  {fc5a378a-25d8-4487-b85c-d4709115bba8}, !- Source Object
  11,                                     !- Outlet Port
  {ecd0a394-5050-410b-97d9-065df932ad66}, !- Target Object
  2;                                      !- Inlet Port

OS:PortList,
  {ad353eae-cd1d-486a-91fa-e4faab6ccefc}, !- Handle
  {fc5a378a-25d8-4487-b85c-d4709115bba8}, !- HVAC Component
  {24874d5a-f586-48d4-b2be-e61f4b5a884f}; !- Port 1

OS:PortList,
  {a042d294-949b-47ca-b4a0-cc1740f4b0d5}, !- Handle
  {fc5a378a-25d8-4487-b85c-d4709115bba8}; !- HVAC Component

OS:PortList,
  {81a669f3-7b86-46c7-a006-45355a8f91ec}, !- Handle
  {fc5a378a-25d8-4487-b85c-d4709115bba8}, !- HVAC Component
  {740f5e55-b34d-4f2a-857d-e1296d2aa58c}; !- Port 1

OS:Sizing:Zone,
  {bcccce1c-53bd-4835-8e8b-de85109d61e4}, !- Handle
  {fc5a378a-25d8-4487-b85c-d4709115bba8}, !- Zone or ZoneList Name
  SupplyAirTemperature,                   !- Zone Cooling Design Supply Air Temperature Input Method
  14,                                     !- Zone Cooling Design Supply Air Temperature {C}
  11.11,                                  !- Zone Cooling Design Supply Air Temperature Difference {deltaC}
  SupplyAirTemperature,                   !- Zone Heating Design Supply Air Temperature Input Method
  40,                                     !- Zone Heating Design Supply Air Temperature {C}
  11.11,                                  !- Zone Heating Design Supply Air Temperature Difference {deltaC}
  0.0085,                                 !- Zone Cooling Design Supply Air Humidity Ratio {kg-H2O/kg-air}
  0.008,                                  !- Zone Heating Design Supply Air Humidity Ratio {kg-H2O/kg-air}
  ,                                       !- Zone Heating Sizing Factor
  ,                                       !- Zone Cooling Sizing Factor
  DesignDay,                              !- Cooling Design Air Flow Method
  ,                                       !- Cooling Design Air Flow Rate {m3/s}
  ,                                       !- Cooling Minimum Air Flow per Zone Floor Area {m3/s-m2}
  ,                                       !- Cooling Minimum Air Flow {m3/s}
  ,                                       !- Cooling Minimum Air Flow Fraction
  DesignDay,                              !- Heating Design Air Flow Method
  ,                                       !- Heating Design Air Flow Rate {m3/s}
  ,                                       !- Heating Maximum Air Flow per Zone Floor Area {m3/s-m2}
  ,                                       !- Heating Maximum Air Flow {m3/s}
  ,                                       !- Heating Maximum Air Flow Fraction
  No,                                     !- Account for Dedicated Outdoor Air System
  NeutralSupplyAir,                       !- Dedicated Outdoor Air System Control Strategy
  autosize,                               !- Dedicated Outdoor Air Low Setpoint Temperature for Design {C}
  autosize,                               !- Dedicated Outdoor Air High Setpoint Temperature for Design {C}
  Sensible Load Only No Latent Load,      !- Zone Load Sizing Method
  HumidityRatioDifference,                !- Zone Latent Cooling Design Supply Air Humidity Ratio Input Method
  ,                                       !- Zone Dehumidification Design Supply Air Humidity Ratio {kgWater/kgDryAir}
  0.005,                                  !- Zone Cooling Design Supply Air Humidity Ratio Difference {kgWater/kgDryAir}
  HumidityRatioDifference,                !- Zone Latent Heating Design Supply Air Humidity Ratio Input Method
  ,                                       !- Zone Humidification Design Supply Air Humidity Ratio {kgWater/kgDryAir}
  0.005,                                  !- Zone Humidification Design Supply Air Humidity Ratio Difference {kgWater/kgDryAir}
  ,                                       !- Zone Humidistat Dehumidification Set Point Schedule Name
  ,                                       !- Zone Humidistat Humidification Set Point Schedule Name
  ,                                       !- Design Zone Air Distribution Effectiveness in Cooling Mode
  ,                                       !- Design Zone Air Distribution Effectiveness in Heating Mode
  ,                                       !- Design Zone Secondary Recirculation Fraction {dimensionless}
  ,                                       !- Design Minimum Zone Ventilation Efficiency {dimensionless}
  Coincident;                             !- Sizing Option

OS:ZoneHVAC:EquipmentList,
  {2e869699-8ca7-4949-8323-770be8abddd7}, !- Handle
  Zone HVAC Equipment List 1,             !- Name
  {fc5a378a-25d8-4487-b85c-d4709115bba8}, !- Thermal Zone
  ,                                       !- Load Distribution Scheme
  {1a8ac0b3-d894-471b-85a1-ad9c1cccf9da}, !- Zone Equipment 1
  1,                                      !- Zone Equipment Cooling Sequence 1
  1,                                      !- Zone Equipment Heating or No-Load Sequence 1
  {b0b8688e-98f0-4c33-8114-db7a16aba411}, !- Zone Equipment Sequential Cooling Fraction Schedule Name 1
  {6824c014-792c-41d7-bf48-e9a41ae91228}; !- Zone Equipment Sequential Heating Fraction Schedule Name 1

OS:AdditionalProperties,
  {bc53dcae-1350-4e4c-be63-194882059502}, !- Handle
  {fc5a378a-25d8-4487-b85c-d4709115bba8}, !- Object Name
  ObjectType,                             !- Feature Name 1
  String,                                 !- Feature Data Type 1
  conditioned space;                      !- Feature Value 1

OS:Space,
  {ebb59eca-15a7-4b25-9e27-4584f57ade07}, !- Handle
  conditioned space 1,                    !- Name
  ,                                       !- Space Type Name
  ,                                       !- Default Construction Set Name
  ,                                       !- Default Schedule Set Name
  ,                                       !- Direction of Relative North {deg}
  ,                                       !- X Origin {m}
  ,                                       !- Y Origin {m}
  ,                                       !- Z Origin {m}
  ,                                       !- Building Story Name
  {fc5a378a-25d8-4487-b85c-d4709115bba8}, !- Thermal Zone Name
  ,                                       !- Part of Total Floor Area
  ,                                       !- Design Specification Outdoor Air Object Name
  ,                                       !- Building Unit Name
  346.03186535424;                        !- Volume {m3}

OS:Schedule:Ruleset,
  {67ca523b-52e9-484a-8f75-500c0aae6d35}, !- Handle
  heating setpoint,                       !- Name
  {0b89ae5d-2dce-4d61-aa44-662423229bc9}, !- Schedule Type Limits Name
  {8cd9a086-fb07-4e55-9c1e-027770e38968}; !- Default Day Schedule Name

OS:Schedule:Day,
  {8cd9a086-fb07-4e55-9c1e-027770e38968}, !- Handle
  heating setpoint default day,           !- Name
  {0b89ae5d-2dce-4d61-aa44-662423229bc9}, !- Schedule Type Limits Name
  ,                                       !- Interpolate to Timestep
  24,                                     !- Hour 1
  0,                                      !- Minute 1
  0;                                      !- Value Until Time 1

OS:Schedule:Rule,
  {18f7814d-e507-4b1f-95d7-fcbe6696ba5b}, !- Handle
  heating setpoint allday rule,           !- Name
  {67ca523b-52e9-484a-8f75-500c0aae6d35}, !- Schedule Ruleset Name
  0,                                      !- Rule Order
  {65af268f-9a64-47ae-b796-482209822223}, !- Day Schedule Name
  Yes,                                    !- Apply Sunday
  Yes,                                    !- Apply Monday
  Yes,                                    !- Apply Tuesday
  Yes,                                    !- Apply Wednesday
  Yes,                                    !- Apply Thursday
  Yes,                                    !- Apply Friday
  Yes,                                    !- Apply Saturday
  DateRange,                              !- Date Specification Type
  1,                                      !- Start Month
  1,                                      !- Start Day
  12,                                     !- End Month
  31;                                     !- End Day

OS:Schedule:Day,
  {65af268f-9a64-47ae-b796-482209822223}, !- Handle
  heating setpoint day,                   !- Name
  {0b89ae5d-2dce-4d61-aa44-662423229bc9}, !- Schedule Type Limits Name
  ,                                       !- Interpolate to Timestep
  24,                                     !- Hour 1
  0,                                      !- Minute 1
  20;                                     !- Value Until Time 1

OS:Schedule:Ruleset,
  {ea8c02c8-5f43-43c5-87c0-733d65519273}, !- Handle
  cooling setpoint,                       !- Name
  {0b89ae5d-2dce-4d61-aa44-662423229bc9}, !- Schedule Type Limits Name
  {16b489e8-f403-48bf-be01-9a40cfc80538}; !- Default Day Schedule Name

OS:Schedule:Day,
  {16b489e8-f403-48bf-be01-9a40cfc80538}, !- Handle
  cooling setpoint default day,           !- Name
  {0b89ae5d-2dce-4d61-aa44-662423229bc9}, !- Schedule Type Limits Name
  ,                                       !- Interpolate to Timestep
  24,                                     !- Hour 1
  0,                                      !- Minute 1
  0;                                      !- Value Until Time 1

OS:Schedule:Rule,
  {b549cfb7-8ab3-467e-be38-43d0452ef16d}, !- Handle
  cooling setpoint allday rule,           !- Name
  {ea8c02c8-5f43-43c5-87c0-733d65519273}, !- Schedule Ruleset Name
  0,                                      !- Rule Order
  {e3b29c38-36cc-4e0c-a18d-66d93469471f}, !- Day Schedule Name
  Yes,                                    !- Apply Sunday
  Yes,                                    !- Apply Monday
  Yes,                                    !- Apply Tuesday
  Yes,                                    !- Apply Wednesday
  Yes,                                    !- Apply Thursday
  Yes,                                    !- Apply Friday
  Yes,                                    !- Apply Saturday
  DateRange,                              !- Date Specification Type
  1,                                      !- Start Month
  1,                                      !- Start Day
  12,                                     !- End Month
  31;                                     !- End Day

OS:Schedule:Day,
  {e3b29c38-36cc-4e0c-a18d-66d93469471f}, !- Handle
  cooling setpoint day,                   !- Name
  {0b89ae5d-2dce-4d61-aa44-662423229bc9}, !- Schedule Type Limits Name
  ,                                       !- Interpolate to Timestep
  24,                                     !- Hour 1
  0,                                      !- Minute 1
  25.5555555555556;                       !- Value Until Time 1

OS:ThermostatSetpoint:DualSetpoint,
  {0dfd7515-bd54-48a6-bae6-231542f311db}, !- Handle
  conditioned space temperature setpoint, !- Name
  {67ca523b-52e9-484a-8f75-500c0aae6d35}, !- Heating Setpoint Temperature Schedule Name
  {ea8c02c8-5f43-43c5-87c0-733d65519273}, !- Cooling Setpoint Temperature Schedule Name
  0;                                      !- Temperature Difference Between Cutout And Setpoint {deltaC}

OS:ScheduleTypeLimits,
  {0b89ae5d-2dce-4d61-aa44-662423229bc9}, !- Handle
  Temperature,                            !- Name
  ,                                       !- Lower Limit Value
  ,                                       !- Upper Limit Value
  Continuous,                             !- Numeric Type
  Temperature;                            !- Unit Type

OS:Surface,
  {26437e21-ac78-4742-bc5e-085ce359e9cb}, !- Handle
  Roof1,                                  !- Name
  RoofCeiling,                            !- Surface Type
  {4449ad6f-b45d-4c4d-8188-f5213832349f}, !- Construction Name
  {4e544b81-1d4d-4455-8e62-7bcd3be6106f}, !- Space Name
  Outdoors,                               !- Outside Boundary Condition
  ,                                       !- Outside Boundary Condition Object
  SunExposed,                             !- Sun Exposure
  WindExposed,                            !- Wind Exposure
  ,                                       !- View Factor to Ground
  ,                                       !- Number of Vertices
  -25.0448166683368, 35.3267874683368, 2.4384, !- X,Y,Z Vertex 1 {m}
  -25.0448166683368, 27.3603626312596, 6.42161241853859, !- X,Y,Z Vertex 2 {m}
  -16.1380829316632, 27.3603626312596, 6.42161241853859, !- X,Y,Z Vertex 3 {m}
  -16.1380829316632, 35.3267874683368, 2.4384; !- X,Y,Z Vertex 4 {m}

OS:AdditionalProperties,
  {14401003-482b-4131-8b1d-263780e4ea23}, !- Handle
  {26437e21-ac78-4742-bc5e-085ce359e9cb}, !- Object Name
  Length,                                 !- Feature Name 1
  Double,                                 !- Feature Data Type 1
  29.221567377538118,                     !- Feature Value 1
  Width,                                  !- Feature Name 2
  Double,                                 !- Feature Data Type 2
  29.221567377538118,                     !- Feature Value 2
  Azimuth,                                !- Feature Name 3
  Integer,                                !- Feature Data Type 3
  0,                                      !- Feature Value 3
  Tilt,                                   !- Feature Name 4
  Double,                                 !- Feature Data Type 4
  0.5,                                    !- Feature Value 4
  SurfaceType,                            !- Feature Name 5
  String,                                 !- Feature Data Type 5
  Roof;                                   !- Feature Value 5

OS:ThermalZone,
  {2dcbb013-bf66-4c2e-addf-610907ad2b15}, !- Handle
  attic - vented,                         !- Name
  1,                                      !- Multiplier
  ,                                       !- Ceiling Height {m}
  126.003218814318,                       !- Volume {m3}
  ,                                       !- Floor Area {m2}
  ,                                       !- Zone Inside Convection Algorithm
  ,                                       !- Zone Outside Convection Algorithm
  ,                                       !- Zone Conditioning Equipment List Name
  {b3b1df80-2d86-4ded-b6e8-dfb0e1389ba8}, !- Zone Air Inlet Port List
  {30fb967a-549c-4653-824e-d77d60aa15b1}, !- Zone Air Exhaust Port List
  {22cf8abd-b24e-4b76-872b-728f646f3fbe}, !- Zone Air Node Name
  {6e1f02ea-029d-45c4-81d0-5160df7718b6}, !- Zone Return Air Port List
  ,                                       !- Primary Daylighting Control Name
  ,                                       !- Fraction of Zone Controlled by Primary Daylighting Control
  ,                                       !- Secondary Daylighting Control Name
  ,                                       !- Fraction of Zone Controlled by Secondary Daylighting Control
  ,                                       !- Illuminance Map Name
  ,                                       !- Group Rendering Name
  ,                                       !- Thermostat Name
  No;                                     !- Use Ideal Air Loads

OS:Node,
  {3fb48fbe-e9ec-4ac6-a157-eb298d4f577a}, !- Handle
  Node 2,                                 !- Name
  {22cf8abd-b24e-4b76-872b-728f646f3fbe}, !- Inlet Port
  ;                                       !- Outlet Port

OS:Connection,
  {22cf8abd-b24e-4b76-872b-728f646f3fbe}, !- Handle
  {2dcbb013-bf66-4c2e-addf-610907ad2b15}, !- Source Object
  11,                                     !- Outlet Port
  {3fb48fbe-e9ec-4ac6-a157-eb298d4f577a}, !- Target Object
  2;                                      !- Inlet Port

OS:PortList,
  {b3b1df80-2d86-4ded-b6e8-dfb0e1389ba8}, !- Handle
  {2dcbb013-bf66-4c2e-addf-610907ad2b15}; !- HVAC Component

OS:PortList,
  {30fb967a-549c-4653-824e-d77d60aa15b1}, !- Handle
  {2dcbb013-bf66-4c2e-addf-610907ad2b15}; !- HVAC Component

OS:PortList,
  {6e1f02ea-029d-45c4-81d0-5160df7718b6}, !- Handle
  {2dcbb013-bf66-4c2e-addf-610907ad2b15}; !- HVAC Component

OS:Sizing:Zone,
  {fd931ece-0932-4fa6-a981-a1559997be58}, !- Handle
  {2dcbb013-bf66-4c2e-addf-610907ad2b15}, !- Zone or ZoneList Name
  SupplyAirTemperature,                   !- Zone Cooling Design Supply Air Temperature Input Method
  14,                                     !- Zone Cooling Design Supply Air Temperature {C}
  11.11,                                  !- Zone Cooling Design Supply Air Temperature Difference {deltaC}
  SupplyAirTemperature,                   !- Zone Heating Design Supply Air Temperature Input Method
  40,                                     !- Zone Heating Design Supply Air Temperature {C}
  11.11,                                  !- Zone Heating Design Supply Air Temperature Difference {deltaC}
  0.0085,                                 !- Zone Cooling Design Supply Air Humidity Ratio {kg-H2O/kg-air}
  0.008,                                  !- Zone Heating Design Supply Air Humidity Ratio {kg-H2O/kg-air}
  ,                                       !- Zone Heating Sizing Factor
  ,                                       !- Zone Cooling Sizing Factor
  DesignDay,                              !- Cooling Design Air Flow Method
  ,                                       !- Cooling Design Air Flow Rate {m3/s}
  ,                                       !- Cooling Minimum Air Flow per Zone Floor Area {m3/s-m2}
  ,                                       !- Cooling Minimum Air Flow {m3/s}
  ,                                       !- Cooling Minimum Air Flow Fraction
  DesignDay,                              !- Heating Design Air Flow Method
  ,                                       !- Heating Design Air Flow Rate {m3/s}
  ,                                       !- Heating Maximum Air Flow per Zone Floor Area {m3/s-m2}
  ,                                       !- Heating Maximum Air Flow {m3/s}
  ,                                       !- Heating Maximum Air Flow Fraction
  No,                                     !- Account for Dedicated Outdoor Air System
  NeutralSupplyAir,                       !- Dedicated Outdoor Air System Control Strategy
  autosize,                               !- Dedicated Outdoor Air Low Setpoint Temperature for Design {C}
  autosize,                               !- Dedicated Outdoor Air High Setpoint Temperature for Design {C}
  Sensible Load Only No Latent Load,      !- Zone Load Sizing Method
  HumidityRatioDifference,                !- Zone Latent Cooling Design Supply Air Humidity Ratio Input Method
  ,                                       !- Zone Dehumidification Design Supply Air Humidity Ratio {kgWater/kgDryAir}
  0.005,                                  !- Zone Cooling Design Supply Air Humidity Ratio Difference {kgWater/kgDryAir}
  HumidityRatioDifference,                !- Zone Latent Heating Design Supply Air Humidity Ratio Input Method
  ,                                       !- Zone Humidification Design Supply Air Humidity Ratio {kgWater/kgDryAir}
  0.005,                                  !- Zone Humidification Design Supply Air Humidity Ratio Difference {kgWater/kgDryAir}
  ,                                       !- Zone Humidistat Dehumidification Set Point Schedule Name
  ,                                       !- Zone Humidistat Humidification Set Point Schedule Name
  ,                                       !- Design Zone Air Distribution Effectiveness in Cooling Mode
  ,                                       !- Design Zone Air Distribution Effectiveness in Heating Mode
  ,                                       !- Design Zone Secondary Recirculation Fraction {dimensionless}
  ,                                       !- Design Minimum Zone Ventilation Efficiency {dimensionless}
  Coincident;                             !- Sizing Option

OS:ZoneHVAC:EquipmentList,
  {8d3ed169-6164-4920-81c3-7b4c80741dd8}, !- Handle
  Zone HVAC Equipment List 2,             !- Name
  {2dcbb013-bf66-4c2e-addf-610907ad2b15}; !- Thermal Zone

OS:AdditionalProperties,
  {7972f4b7-adc2-40b3-989e-1360a1a20706}, !- Handle
  {2dcbb013-bf66-4c2e-addf-610907ad2b15}, !- Object Name
  ObjectType,                             !- Feature Name 1
  String,                                 !- Feature Data Type 1
  attic - vented;                         !- Feature Value 1

OS:Space,
  {4e544b81-1d4d-4455-8e62-7bcd3be6106f}, !- Handle
  attic - vented 1,                       !- Name
  ,                                       !- Space Type Name
  ,                                       !- Default Construction Set Name
  ,                                       !- Default Schedule Set Name
  ,                                       !- Direction of Relative North {deg}
  ,                                       !- X Origin {m}
  ,                                       !- Y Origin {m}
  ,                                       !- Z Origin {m}
  ,                                       !- Building Story Name
  {2dcbb013-bf66-4c2e-addf-610907ad2b15}, !- Thermal Zone Name
  ,                                       !- Part of Total Floor Area
  ,                                       !- Design Specification Outdoor Air Object Name
  ,                                       !- Building Unit Name
  126.003218814318;                       !- Volume {m3}

OS:Material,
  {bbff1d2b-efbb-4405-8e1f-d69125db6bbe}, !- Handle
  asphalt or fiberglass shingles,         !- Name
  Rough,                                  !- Roughness
  0.00635,                                !- Thickness {m}
  0.162714,                               !- Conductivity {W/m-K}
  1121.4,                                 !- Density {kg/m3}
  1465.45,                                !- Specific Heat {J/kg-K}
  0.9,                                    !- Thermal Absorptance
  0.85,                                   !- Solar Absorptance