
OS:Version,
  {c38737e8-fd70-45c9-bead-dacbb045e66c}, !- Handle
  3.9.0;                                  !- Version Identifier

OS:SimulationControl,
  {cd82d1d0-35fe-4d9b-8111-5b9dbaa2490d}, !- Handle
  ,                                       !- Do Zone Sizing Calculation
  ,                                       !- Do System Sizing Calculation
  ,                                       !- Do Plant Sizing Calculation
  No;                                     !- Run Simulation for Sizing Periods

OS:Timestep,
  {25ac48ee-c285-4d05-b439-da6301680d52}, !- Handle
  1;                                      !- Number of Timesteps per Hour

OS:ShadowCalculation,
  {9850ffbe-579e-4596-a992-dc939d526e2b}, !- Handle
  PolygonClipping,                        !- Shading Calculation Method
  ,                                       !- Shading Calculation Update Frequency Method
  20,                                     !- Shading Calculation Update Frequency
  200,                                    !- Maximum Figures in Shadow Overlap Calculations
  ,                                       !- Polygon Clipping Algorithm
  512,                                    !- Pixel Counting Resolution
  ,                                       !- Sky Diffuse Modeling Algorithm
  No,                                     !- Output External Shading Calculation Results
  No,                                     !- Disable Self-Shading Within Shading Zone Groups
  No;                                     !- Disable Self-Shading From Shading Zone Groups to Other Zones

OS:SurfaceConvectionAlgorithm:Outside,
  {5dc36f8a-369f-4daf-8963-0d0a237f84d5}, !- Handle
  DOE-2;                                  !- Algorithm

OS:SurfaceConvectionAlgorithm:Inside,
  {8dbc87ac-bf67-43b9-8f3a-1b66c5134c9b}, !- Handle
  TARP;                                   !- Algorithm

OS:ZoneCapacitanceMultiplier:ResearchSpecial,
  {798a22c7-b1a5-40f7-8f7f-960c2738cdf7}, !- Handle
  7,                                      !- Temperature Capacity Multiplier
  15,                                     !- Humidity Capacity Multiplier
  ;                                       !- Carbon Dioxide Capacity Multiplier

OS:ConvergenceLimits,
  {b3cafc2e-6db7-42c3-bc09-2bbd29532e9a}, !- Handle
  0;                                      !- Minimum System Timestep {minutes}

OS:RunPeriod,
  {61b54ad7-1974-4cb4-adc5-8c6f8b017546}, !- Handle
  Run Period 1,                           !- Name
  1,                                      !- Begin Month
  1,                                      !- Begin Day of Month
  12,                                     !- End Month
  31,                                     !- End Day of Month
  ,                                       !- Use Weather File Holidays and Special Days
  ,                                       !- Use Weather File Daylight Saving Period
  ,                                       !- Apply Weekend Holiday Rule
  ,                                       !- Use Weather File Rain Indicators
  ,                                       !- Use Weather File Snow Indicators
  ;                                       !- Number of Times Runperiod to be Repeated

OS:PerformancePrecisionTradeoffs,
  {1a6a9ca4-35a7-4f0f-af0e-8852985bcfe5}, !- Handle
  ,                                       !- Use Coil Direct Solutions
  CarrollMRT;                             !- Zone Radiant Exchange Algorithm

OS:WeatherFile,
  {34f039bd-7ddd-44a4-b06e-41c6b25b01c8}, !- Handle
  Buffalo Niagara Intl Ap,                !- City
  NY,                                     !- State Province Region
  USA,                                    !- Country
  TMY3,                                   !- Data Source
  725280,                                 !- WMO Number
  42.93,                                  !- Latitude {deg}
  -78.73,                                 !- Longitude {deg}
  -5,                                     !- Time Zone {hr}
  215,                                    !- Elevation {m}
  /Users/nmoore/github/urbanopt-example-geojson-project/example_project/weather/USA_NY_Buffalo-Greater.Buffalo.Intl.AP.725280_TMY3.epw, !- Url
  6B50E0FF,                               !- Checksum
  ,                                       !- Start Date Actual Year
  Sunday;                                 !- Start Day of Week

OS:YearDescription,
  {a8e8b8c4-7121-478e-b3bf-5825340c2c64}, !- Handle
  2007,                                   !- Calendar Year
  ,                                       !- Day of Week for Start Day
  ;                                       !- Is Leap Year

OS:Site,
  {9e364b63-3d94-4ded-bd84-32c9009bcdcb}, !- Handle
  Buffalo Niagara Intl Ap_NY,             !- Name
  42.93,                                  !- Latitude {deg}
  -78.73,                                 !- Longitude {deg}
  -5,                                     !- Time Zone {hr}
  215,                                    !- Elevation {m}
  Suburbs,                                !- Terrain
  Yes;                                    !- Keep Site Location Information

OS:RunPeriodControl:DaylightSavingTime,
  {6841f119-0a8a-482d-9d03-c68dd57dac94}, !- Handle
  Mar 12,                                 !- Start Date
  Nov 5;                                  !- End Date

OS:Site:GroundTemperature:Shallow,
  {eb5feda9-2cda-4d71-ba68-0742c1ab9a0b}, !- Handle
  4.30207395723828,                       !- January Surface Ground Temperature {C}
  2.29327249652502,                       !- February Surface Ground Temperature {C}
  2.13240047156047,                       !- March Surface Ground Temperature {C}
  3.08567940719286,                       !- April Surface Ground Temperature {C}
  6.91256312497526,                       !- May Surface Ground Temperature {C}
  10.7216195949507,                       !- June Surface Ground Temperature {C}
  14.0238679822574,                       !- July Surface Ground Temperature {C}
  16.1157611184724,                       !- August Surface Ground Temperature {C}
  16.2934789303462,                       !- September Surface Ground Temperature {C}
  14.5920754632847,                       !- October Surface Ground Temperature {C}
  11.374036348653,                        !- November Surface Ground Temperature {C}
  7.68182621661674;                       !- December Surface Ground Temperature {C}

OS:ThermalZone,
  {fc62dbef-a2e3-427b-b2eb-400eb02136e7}, !- Handle
  conditioned space,                      !- Name
  1,                                      !- Multiplier
  ,                                       !- Ceiling Height {m}
  692.06373070848,                        !- Volume {m3}
  ,                                       !- Floor Area {m2}
  ,                                       !- Zone Inside Convection Algorithm
  ,                                       !- Zone Outside Convection Algorithm
  ,                                       !- Zone Conditioning Equipment List Name
  {7fd67390-b6f9-4bd3-b332-b25d106d215d}, !- Zone Air Inlet Port List
  {e1ca28ab-dc32-494a-bf3d-6968eaf47e72}, !- Zone Air Exhaust Port List
  {3e94a637-3dab-4b14-987d-4fbec150b474}, !- Zone Air Node Name
  {ebb31eea-877e-4bfc-8be0-aa33b4c62729}, !- Zone Return Air Port List
  ,                                       !- Primary Daylighting Control Name
  ,                                       !- Fraction of Zone Controlled by Primary Daylighting Control
  ,                                       !- Secondary Daylighting Control Name
  ,                                       !- Fraction of Zone Controlled by Secondary Daylighting Control
  ,                                       !- Illuminance Map Name
  ,                                       !- Group Rendering Name
  {bf84a440-7436-4144-ac45-466f8dc96d12}, !- Thermostat Name
  No;                                     !- Use Ideal Air Loads

OS:Node,
  {0eed0af9-cb79-4f19-8d83-acf2bb0efea9}, !- Handle
  Node 1,                                 !- Name
  {3e94a637-3dab-4b14-987d-4fbec150b474}, !- Inlet Port
  ;                                       !- Outlet Port

OS:Connection,
  {3e94a637-3dab-4b14-987d-4fbec150b474}, !- Handle
  {fc62dbef-a2e3-427b-b2eb-400eb02136e7}, !- Source Object
  11,                                     !- Outlet Port
  {0eed0af9-cb79-4f19-8d83-acf2bb0efea9}, !- Target Object
  2;                                      !- Inlet Port

OS:PortList,
  {7fd67390-b6f9-4bd3-b332-b25d106d215d}, !- Handle
  {fc62dbef-a2e3-427b-b2eb-400eb02136e7}, !- HVAC Component
  {2cb454ae-215f-4044-8b62-2775335bbff1}; !- Port 1

OS:PortList,
  {e1ca28ab-dc32-494a-bf3d-6968eaf47e72}, !- Handle
  {fc62dbef-a2e3-427b-b2eb-400eb02136e7}; !- HVAC Component

OS:PortList,
  {ebb31eea-877e-4bfc-8be0-aa33b4c62729}, !- Handle
  {fc62dbef-a2e3-427b-b2eb-400eb02136e7}, !- HVAC Component
  {abe768e3-6e2e-4bae-be0c-62dd22e633c4}; !- Port 1

OS:Sizing:Zone,
  {2235cb7e-160a-40ec-8aac-99b4ced59ab0}, !- Handle
  {fc62dbef-a2e3-427b-b2eb-400eb02136e7}, !- Zone or ZoneList Name
  SupplyAirTemperature,                   !- Zone Cooling Design Supply Air Temperature Input Method
  14,                                     !- Zone Cooling Design Supply Air Temperature {C}
  11.11,                                  !- Zone Cooling Design Supply Air Temperature Difference {deltaC}
  SupplyAirTemperature,                   !- Zone Heating Design Supply Air Temperature Input Method
  40,                                     !- Zone Heating Design Supply Air Temperature {C}
  11.11,                                  !- Zone Heating Design Supply Air Temperature Difference {deltaC}
  0.0085,                                 !- Zone Cooling Design Supply Air Humidity Ratio {kg-H2O/kg-air}
  0.008,                                  !- Zone Heating Design Supply Air Humidity Ratio {kg-H2O/kg-air}
  ,                                       !- Zone Heating Sizing Factor
  ,                                       !- Zone Cooling Sizing Factor
  DesignDay,                              !- Cooling Design Air Flow Method
  ,                                       !- Cooling Design Air Flow Rate {m3/s}
  ,                                       !- Cooling Minimum Air Flow per Zone Floor Area {m3/s-m2}
  ,                                       !- Cooling Minimum Air Flow {m3/s}
  ,                                       !- Cooling Minimum Air Flow Fraction
  DesignDay,                              !- Heating Design Air Flow Method
  ,                                       !- Heating Design Air Flow Rate {m3/s}
  ,                                       !- Heating Maximum Air Flow per Zone Floor Area {m3/s-m2}
  ,                                       !- Heating Maximum Air Flow {m3/s}
  ,                                       !- Heating Maximum Air Flow Fraction
  No,                                     !- Account for Dedicated Outdoor Air System
  NeutralSupplyAir,                       !- Dedicated Outdoor Air System Control Strategy
  autosize,                               !- Dedicated Outdoor Air Low Setpoint Temperature for Design {C}
  autosize,                               !- Dedicated Outdoor Air High Setpoint Temperature for Design {C}
  Sensible Load Only No Latent Load,      !- Zone Load Sizing Method
  HumidityRatioDifference,                !- Zone Latent Cooling Design Supply Air Humidity Ratio Input Method
  ,                                       !- Zone Dehumidification Design Supply Air Humidity Ratio {kgWater/kgDryAir}
  0.005,                                  !- Zone Cooling Design Supply Air Humidity Ratio Difference {kgWater/kgDryAir}
  HumidityRatioDifference,                !- Zone Latent Heating Design Supply Air Humidity Ratio Input Method
  ,                                       !- Zone Humidification Design Supply Air Humidity Ratio {kgWater/kgDryAir}
  0.005,                                  !- Zone Humidification Design Supply Air Humidity Ratio Difference {kgWater/kgDryAir}
  ,                                       !- Zone Humidistat Dehumidification Set Point Schedule Name
  ,                                       !- Zone Humidistat Humidification Set Point Schedule Name
  ,                                       !- Design Zone Air Distribution Effectiveness in Cooling Mode
  ,                                       !- Design Zone Air Distribution Effectiveness in Heating Mode
  ,                                       !- Design Zone Secondary Recirculation Fraction {dimensionless}
  ,                                       !- Design Minimum Zone Ventilation Efficiency {dimensionless}
  Coincident;                             !- Sizing Option

OS:ZoneHVAC:EquipmentList,
  {156d142b-a6d4-4e20-9539-828cc4d7e585}, !- Handle
  Zone HVAC Equipment List 1,             !- Name
  {fc62dbef-a2e3-427b-b2eb-400eb02136e7}, !- Thermal Zone
  ,                                       !- Load Distribution Scheme
  {13ad70e5-50a5-4bdc-85b6-f50da0ed4556}, !- Zone Equipment 1
  1,                                      !- Zone Equipment Cooling Sequence 1
  1,                                      !- Zone Equipment Heating or No-Load Sequence 1
  {ffbc586a-e2a5-48f9-b302-44fbe65e7b6d}, !- Zone Equipment Sequential Cooling Fraction Schedule Name 1
  {13697282-9005-49d6-a83c-aebdde4a0828}; !- Zone Equipment Sequential Heating Fraction Schedule Name 1

OS:AdditionalProperties,
  {159ee89e-784e-4a35-9aad-03295f913573}, !- Handle
  {fc62dbef-a2e3-427b-b2eb-400eb02136e7}, !- Object Name
  ObjectType,                             !- Feature Name 1
  String,                                 !- Feature Data Type 1
  conditioned space;                      !- Feature Value 1

OS:Space,
  {44f7ee36-57a2-4f18-8586-5aa7d4b2ca40}, !- Handle
  conditioned space 1,                    !- Name
  ,                                       !- Space Type Name
  ,                                       !- Default Construction Set Name
  ,                                       !- Default Schedule Set Name
  ,                                       !- Direction of Relative North {deg}
  ,                                       !- X Origin {m}
  ,                                       !- Y Origin {m}
  ,                                       !- Z Origin {m}
  ,                                       !- Building Story Name
  {fc62dbef-a2e3-427b-b2eb-400eb02136e7}, !- Thermal Zone Name
  ,                                       !- Part of Total Floor Area
  ,                                       !- Design Specification Outdoor Air Object Name
  ,                                       !- Building Unit Name
  692.06373070848;                        !- Volume {m3}

OS:Schedule:Ruleset,
  {ff1d724b-773a-4ffa-9c10-a2b08a84e850}, !- Handle
  heating setpoint,                       !- Name
  {6c2afcb0-b293-4152-8b25-c5c50fcc297c}, !- Schedule Type Limits Name
  {c1a0aa5e-ca7f-4cd8-b5de-67aaa3981e32}; !- Default Day Schedule Name

OS:Schedule:Day,
  {c1a0aa5e-ca7f-4cd8-b5de-67aaa3981e32}, !- Handle
  heating setpoint default day,           !- Name
  {6c2afcb0-b293-4152-8b25-c5c50fcc297c}, !- Schedule Type Limits Name
  ,                                       !- Interpolate to Timestep
  24,                                     !- Hour 1
  0,                                      !- Minute 1
  0;                                      !- Value Until Time 1

OS:Schedule:Rule,
  {2a183430-b09e-4517-9b34-2245755aec29}, !- Handle
  heating setpoint allday rule,           !- Name
  {ff1d724b-773a-4ffa-9c10-a2b08a84e850}, !- Schedule Ruleset Name
  0,                                      !- Rule Order
  {a415a69f-3e55-4e8d-9b16-ac1e3757e028}, !- Day Schedule Name
  Yes,                                    !- Apply Sunday
  Yes,                                    !- Apply Monday
  Yes,                                    !- Apply Tuesday
  Yes,                                    !- Apply Wednesday
  Yes,                                    !- Apply Thursday
  Yes,                                    !- Apply Friday
  Yes,                                    !- Apply Saturday
  DateRange,                              !- Date Specification Type
  1,                                      !- Start Month
  1,                                      !- Start Day
  12,                                     !- End Month
  31;                                     !- End Day

OS:Schedule:Day,
  {a415a69f-3e55-4e8d-9b16-ac1e3757e028}, !- Handle
  heating setpoint day,                   !- Name
  {6c2afcb0-b293-4152-8b25-c5c50fcc297c}, !- Schedule Type Limits Name
  ,                                       !- Interpolate to Timestep
  24,                                     !- Hour 1
  0,                                      !- Minute 1
  20;                                     !- Value Until Time 1

OS:Schedule:Ruleset,
  {96d38128-1e9a-4ed7-bc66-137ea6fe8eaa}, !- Handle
  cooling setpoint,                       !- Name
  {6c2afcb0-b293-4152-8b25-c5c50fcc297c}, !- Schedule Type Limits Name
  {f9a54977-92e1-4fbd-9b01-4fad43dd515c}; !- Default Day Schedule Name

OS:Schedule:Day,
  {f9a54977-92e1-4fbd-9b01-4fad43dd515c}, !- Handle
  cooling setpoint default day,           !- Name
  {6c2afcb0-b293-4152-8b25-c5c50fcc297c}, !- Schedule Type Limits Name
  ,                                       !- Interpolate to Timestep
  24,                                     !- Hour 1
  0,                                      !- Minute 1
  0;                                      !- Value Until Time 1

OS:Schedule:Rule,
  {4d6cc581-33d8-4fb5-96c8-c836c6fd7184}, !- Handle
  cooling setpoint allday rule,           !- Name
  {96d38128-1e9a-4ed7-bc66-137ea6fe8eaa}, !- Schedule Ruleset Name
  0,                                      !- Rule Order
  {eb83a683-6343-4a0b-af40-a3f9fd81b9a3}, !- Day Schedule Name
  Yes,                                    !- Apply Sunday
  Yes,                                    !- Apply Monday
  Yes,                                    !- Apply Tuesday
  Yes,                                    !- Apply Wednesday
  Yes,                                    !- Apply Thursday
  Yes,                                    !- Apply Friday
  Yes,                                    !- Apply Saturday
  DateRange,                              !- Date Specification Type
  1,                                      !- Start Month
  1,                                      !- Start Day
  12,                                     !- End Month
  31;                                     !- End Day

OS:Schedule:Day,
  {eb83a683-6343-4a0b-af40-a3f9fd81b9a3}, !- Handle
  cooling setpoint day,                   !- Name
  {6c2afcb0-b293-4152-8b25-c5c50fcc297c}, !- Schedule Type Limits Name
  ,                                       !- Interpolate to Timestep
  24,                                     !- Hour 1
  0,                                      !- Minute 1
  25.5555555555556;                       !- Value Until Time 1

OS:ThermostatSetpoint:DualSetpoint,
  {bf84a440-7436-4144-ac45-466f8dc96d12}, !- Handle
  conditioned space temperature setpoint, !- Name
  {ff1d724b-773a-4ffa-9c10-a2b08a84e850}, !- Heating Setpoint Temperature Schedule Name
  {96d38128-1e9a-4ed7-bc66-137ea6fe8eaa}, !- Cooling Setpoint Temperature Schedule Name
  0;                                      !- Temperature Difference Between Cutout And Setpoint {deltaC}

OS:ScheduleTypeLimits,
  {6c2afcb0-b293-4152-8b25-c5c50fcc297c}, !- Handle
  Temperature,                            !- Name
  ,                                       !- Lower Limit Value
  ,                                       !- Upper Limit Value
  Continuous,                             !- Numeric Type
  Temperature;                            !- Unit Type

OS:Surface,
  {9e5bca80-9e99-4fa4-a157-8dcf208d77bb}, !- Handle
  Roof1,                                  !- Name
  RoofCeiling,                            !- Surface Type
  {796d1448-0614-4e3d-a68a-947a4488abcb}, !- Construction Name
  {6972692e-8199-43c1-92ad-7aebf615014e}, !- Space Name
  Outdoors,                               !- Outside Boundary Condition
  ,                                       !- Outside Boundary Condition Object
  SunExposed,                             !- Sun Exposure
  WindExposed,                            !- Wind Exposure
  ,                                       !- View Factor to Ground
  ,                                       !- Number of Vertices
  -18.7742033914137, 41.5974007452599, 2.4384, !- X,Y,Z Vertex 1 {m}
  -18.7742033914137, 33.6309759081827, 6.42161241853859, !- X,Y,Z Vertex 2 {m}
  -9.86746965474012, 33.6309759081827, 6.42161241853859, !- X,Y,Z Vertex 3 {m}
  -9.86746965474012, 41.5974007452599, 2.4384; !- X,Y,Z Vertex 4 {m}

OS:AdditionalProperties,
  {4d5c8968-282d-467b-b7ca-a4fcd2574216}, !- Handle
  {9e5bca80-9e99-4fa4-a157-8dcf208d77bb}, !- Object Name
  Length,                                 !- Feature Name 1
  Double,                                 !- Feature Data Type 1
  29.221567377538118,                     !- Feature Value 1
  Width,                                  !- Feature Name 2
  Double,                                 !- Feature Data Type 2
  29.221567377538118,                     !- Feature Value 2
  Azimuth,                                !- Feature Name 3
  Integer,                                !- Feature Data Type 3
  0,                                      !- Feature Value 3
  Tilt,                                   !- Feature Name 4
  Double,                                 !- Feature Data Type 4
  0.5,                                    !- Feature Value 4
  SurfaceType,                            !- Feature Name 5
  String,                                 !- Feature Data Type 5
  Roof;                                   !- Feature Value 5

OS:ThermalZone,
  {e6770a54-8140-4fde-8d2d-b0d9f2933957}, !- Handle
  attic - vented,                         !- Name
  1,                                      !- Multiplier
  ,                                       !- Ceiling Height {m}
  126.002877704413,                       !- Volume {m3}
  ,                                       !- Floor Area {m2}
  ,                                       !- Zone Inside Convection Algorithm
  ,                                       !- Zone Outside Convection Algorithm
  ,                                       !- Zone Conditioning Equipment List Name
  {4e58f353-32fa-4046-8ec7-9a94397d74c7}, !- Zone Air Inlet Port List
  {c59acd85-bffc-47f7-a095-0120e631b6d5}, !- Zone Air Exhaust Port List
  {1e6b1c40-9594-485c-bdc3-6597c8039ea1}, !- Zone Air Node Name
  {1cd99d2e-2887-4cc4-8426-1dc3d9093709}, !- Zone Return Air Port List
  ,                                       !- Primary Daylighting Control Name
  ,                                       !- Fraction of Zone Controlled by Primary Daylighting Control
  ,                                       !- Secondary Daylighting Control Name
  ,                                       !- Fraction of Zone Controlled by Secondary Daylighting Control
  ,                                       !- Illuminance Map Name
  ,                                       !- Group Rendering Name
  ,                                       !- Thermostat Name
  No;                                     !- Use Ideal Air Loads

OS:Node,
  {bf8ff0c8-f1c7-4e46-b720-abac76f80027}, !- Handle
  Node 2,                                 !- Name
  {1e6b1c40-9594-485c-bdc3-6597c8039ea1}, !- Inlet Port
  ;                                       !- Outlet Port

OS:Connection,
  {1e6b1c40-9594-485c-bdc3-6597c8039ea1}, !- Handle
  {e6770a54-8140-4fde-8d2d-b0d9f2933957}, !- Source Object
  11,                                     !- Outlet Port
  {bf8ff0c8-f1c7-4e46-b720-abac76f80027}, !- Target Object
  2;                                      !- Inlet Port

OS:PortList,
  {4e58f353-32fa-4046-8ec7-9a94397d74c7}, !- Handle
  {e6770a54-8140-4fde-8d2d-b0d9f2933957}; !- HVAC Component

OS:PortList,
  {c59acd85-bffc-47f7-a095-0120e631b6d5}, !- Handle
  {e6770a54-8140-4fde-8d2d-b0d9f2933957}; !- HVAC Component

OS:PortList,
  {1cd99d2e-2887-4cc4-8426-1dc3d9093709}, !- Handle
  {e6770a54-8140-4fde-8d2d-b0d9f2933957}; !- HVAC Component

OS:Sizing:Zone,
  {5abc313d-d363-45cd-baac-90d315ab2b36}, !- Handle
  {e6770a54-8140-4fde-8d2d-b0d9f2933957}, !- Zone or ZoneList Name
  SupplyAirTemperature,                   !- Zone Cooling Design Supply Air Temperature Input Method
  14,                                     !- Zone Cooling Design Supply Air Temperature {C}
  11.11,                                  !- Zone Cooling Design Supply Air Temperature Difference {deltaC}
  SupplyAirTemperature,                   !- Zone Heating Design Supply Air Temperature Input Method
  40,                                     !- Zone Heating Design Supply Air Temperature {C}
  11.11,                                  !- Zone Heating Design Supply Air Temperature Difference {deltaC}
  0.0085,                                 !- Zone Cooling Design Supply Air Humidity Ratio {kg-H2O/kg-air}
  0.008,                                  !- Zone Heating Design Supply Air Humidity Ratio {kg-H2O/kg-air}
  ,                                       !- Zone Heating Sizing Factor
  ,                                       !- Zone Cooling Sizing Factor
  DesignDay,                              !- Cooling Design Air Flow Method
  ,                                       !- Cooling Design Air Flow Rate {m3/s}
  ,                                       !- Cooling Minimum Air Flow per Zone Floor Area {m3/s-m2}
  ,                                       !- Cooling Minimum Air Flow {m3/s}
  ,                                       !- Cooling Minimum Air Flow Fraction
  DesignDay,                              !- Heating Design Air Flow Method
  ,                                       !- Heating Design Air Flow Rate {m3/s}
  ,                                       !- Heating Maximum Air Flow per Zone Floor Area {m3/s-m2}
  ,                                       !- Heating Maximum Air Flow {m3/s}
  ,                                       !- Heating Maximum Air Flow Fraction
  No,                                     !- Account for Dedicated Outdoor Air System
  NeutralSupplyAir,                       !- Dedicated Outdoor Air System Control Strategy
  autosize,                               !- Dedicated Outdoor Air Low Setpoint Temperature for Design {C}
  autosize,                               !- Dedicated Outdoor Air High Setpoint Temperature for Design {C}
  Sensible Load Only No Latent Load,      !- Zone Load Sizing Method
  HumidityRatioDifference,                !- Zone Latent Cooling Design Supply Air Humidity Ratio Input Method
  ,                                       !- Zone Dehumidification Design Supply Air Humidity Ratio {kgWater/kgDryAir}
  0.005,                                  !- Zone Cooling Design Supply Air Humidity Ratio Difference {kgWater/kgDryAir}
  HumidityRatioDifference,                !- Zone Latent Heating Design Supply Air Humidity Ratio Input Method
  ,                                       !- Zone Humidification Design Supply Air Humidity Ratio {kgWater/kgDryAir}
  0.005,                                  !- Zone Humidification Design Supply Air Humidity Ratio Difference {kgWater/kgDryAir}
  ,                                       !- Zone Humidistat Dehumidification Set Point Schedule Name
  ,                                       !- Zone Humidistat Humidification Set Point Schedule Name
  ,                                       !- Design Zone Air Distribution Effectiveness in Cooling Mode
  ,                                       !- Design Zone Air Distribution Effectiveness in Heating Mode
  ,                                       !- Design Zone Secondary Recirculation Fraction {dimensionless}
  ,                                       !- Design Minimum Zone Ventilation Efficiency {dimensionless}
  Coincident;                             !- Sizing Option

OS:ZoneHVAC:EquipmentList,
  {875995b5-7dc5-45a5-84f4-64d999afb77a}, !- Handle
  Zone HVAC Equipment List 2,             !- Name
  {e6770a54-8140-4fde-8d2d-b0d9f2933957}; !- Thermal Zone

OS:AdditionalProperties,
  {b5fb3677-2357-4753-bb1e-d3b891fbafbe}, !- Handle
  {e6770a54-8140-4fde-8d2d-b0d9f2933957}, !- Object Name
  ObjectType,                             !- Feature Name 1
  String,                                 !- Feature Data Type 1
  attic - vented;                         !- Feature Value 1

OS:Space,
  {6972692e-8199-43c1-92ad-7aebf615014e}, !- Handle
  attic - vented 1,                       !- Name
  ,                                       !- Space Type Name
  ,                                       !- Default Construction Set Name
  ,                                       !- Default Schedule Set Name
  ,                                       !- Direction of Relative North {deg}
  ,                                       !- X Origin {m}
  ,                                       !- Y Origin {m}
  ,                                       !- Z Origin {m}
  ,                                       !- Building Story Name
  {e6770a54-8140-4fde-8d2d-b0d9f2933957}, !- Thermal Zone Name
  ,                                       !- Part of Total Floor Area
  ,                                       !- Design Specification Outdoor Air Object Name
  ,                                       !- Building Unit Name
  126.002877704413;                       !- Volume {m3}

OS:Material,
  {119750b3-e64b-48bf-a9ef-eadd233afde3}, !- Handle
  asphalt or fiberglass shingles,         !- Name
  Rough,                                  !- Roughness
  0.00635,                                !- Thickness {m}
  0.162714,                               !- Conductivity {W/m-K}
  1121.4,                                 !- Density {kg/m3}
  1465.45,                                !- Specific Heat {J/kg-K}
  0.9,                                    !- Thermal Absorptance
  0.85,                                   !- Solar Absorptance