
OS:Version,
  {2574aa7f-a654-441c-a4de-80b4732dd6e9}, !- Handle
  3.10.0;                                 !- Version Identifier

OS:SimulationControl,
  {5db81e5c-a5cb-4c96-a1aa-696498815463}, !- Handle
  ,                                       !- Do Zone Sizing Calculation
  ,                                       !- Do System Sizing Calculation
  ,                                       !- Do Plant Sizing Calculation
  No;                                     !- Run Simulation for Sizing Periods

OS:Timestep,
  {5dcc0ea8-b0aa-446d-8814-d233ef0bd1a2}, !- Handle
  1;                                      !- Number of Timesteps per Hour

OS:ShadowCalculation,
  {8a95b2a2-48a9-4adc-aa94-4bc846bba312}, !- Handle
  PolygonClipping,                        !- Shading Calculation Method
  ,                                       !- Shading Calculation Update Frequency Method
  20,                                     !- Shading Calculation Update Frequency
  200,                                    !- Maximum Figures in Shadow Overlap Calculations
  ,                                       !- Polygon Clipping Algorithm
  512,                                    !- Pixel Counting Resolution
  ,                                       !- Sky Diffuse Modeling Algorithm
  No,                                     !- Output External Shading Calculation Results
  No,                                     !- Disable Self-Shading Within Shading Zone Groups
  No;                                     !- Disable Self-Shading From Shading Zone Groups to Other Zones

OS:SurfaceConvectionAlgorithm:Outside,
  {c60f80dc-2b69-4a70-9e2c-c76dd0ef4b0d}, !- Handle
  DOE-2;                                  !- Algorithm

OS:SurfaceConvectionAlgorithm:Inside,
  {78048c3a-bad7-4787-92ee-3f72f2901077}, !- Handle
  TARP;                                   !- Algorithm

OS:ZoneCapacitanceMultiplier:ResearchSpecial,
  {89df8a18-4497-4a08-809e-de094fad60ff}, !- Handle
  7,                                      !- Temperature Capacity Multiplier
  15,                                     !- Humidity Capacity Multiplier
  ;                                       !- Carbon Dioxide Capacity Multiplier

OS:ConvergenceLimits,
  {ce8d8a09-cc5c-40bc-a6b1-76938f1a4044}, !- Handle
  0;                                      !- Minimum System Timestep {minutes}

OS:RunPeriod,
  {ccf94391-cf2a-4cc0-8712-818ed98c9380}, !- Handle
  Run Period 1,                           !- Name
  1,                                      !- Begin Month
  1,                                      !- Begin Day of Month
  12,                                     !- End Month
  31,                                     !- End Day of Month
  ,                                       !- Use Weather File Holidays and Special Days
  ,                                       !- Use Weather File Daylight Saving Period
  ,                                       !- Apply Weekend Holiday Rule
  ,                                       !- Use Weather File Rain Indicators
  ,                                       !- Use Weather File Snow Indicators
  ;                                       !- Number of Times Runperiod to be Repeated

OS:PerformancePrecisionTradeoffs,
  {0880a7d0-3555-46b8-89c7-3901184dbe91}, !- Handle
  ,                                       !- Use Coil Direct Solutions
  CarrollMRT;                             !- Zone Radiant Exchange Algorithm

OS:WeatherFile,
  {a9e661be-f1f4-4fb9-a561-0f949537b6c5}, !- Handle
  Buffalo Niagara Intl Ap,                !- City
  NY,                                     !- State Province Region
  USA,                                    !- Country
  TMY3,                                   !- Data Source
  725280,                                 !- WMO Number
  42.93,                                  !- Latitude {deg}
  -78.73,                                 !- Longitude {deg}
  -5,                                     !- Time Zone {hr}
  215,                                    !- Elevation {m}
  /Users/nmoore/github/urbanopt-example-geojson-project/example_project/weather/USA_NY_Buffalo-Greater.Buffalo.Intl.AP.725280_TMY3.epw, !- Url
  6B50E0FF,                               !- Checksum
  ,                                       !- Start Date Actual Year
  Sunday;                                 !- Start Day of Week

OS:YearDescription,
  {8bd32efc-6eb7-4b82-9e12-6009f3974257}, !- Handle
  2007,                                   !- Calendar Year
  ,                                       !- Day of Week for Start Day
  ;                                       !- Is Leap Year

OS:Site,
  {9ea5b1a3-3970-4218-b5ab-b9a6882618b3}, !- Handle
  Buffalo Niagara Intl Ap_NY,             !- Name
  42.93,                                  !- Latitude {deg}
  -78.73,                                 !- Longitude {deg}
  -5,                                     !- Time Zone {hr}
  215,                                    !- Elevation {m}
  Suburbs,                                !- Terrain
  Yes;                                    !- Keep Site Location Information

OS:RunPeriodControl:DaylightSavingTime,
  {9454f3a2-36d1-4b3c-b26a-94b6f564f6f0}, !- Handle
  Mar 12,                                 !- Start Date
  Nov 5;                                  !- End Date

OS:Site:GroundTemperature:Shallow,
  {aac70d38-87ae-42d0-9dca-56110ad1a474}, !- Handle
  4.30207395723828,                       !- January Surface Ground Temperature {C}
  2.29327249652502,                       !- February Surface Ground Temperature {C}
  2.13240047156047,                       !- March Surface Ground Temperature {C}
  3.08567940719286,                       !- April Surface Ground Temperature {C}
  6.91256312497526,                       !- May Surface Ground Temperature {C}
  10.7216195949507,                       !- June Surface Ground Temperature {C}
  14.0238679822574,                       !- July Surface Ground Temperature {C}
  16.1157611184724,                       !- August Surface Ground Temperature {C}
  16.2934789303462,                       !- September Surface Ground Temperature {C}
  14.5920754632847,                       !- October Surface Ground Temperature {C}
  11.374036348653,                        !- November Surface Ground Temperature {C}
  7.68182621661674;                       !- December Surface Ground Temperature {C}

OS:ThermalZone,
  {53f2a623-6744-4862-aaf8-0ff8ff0c2ff9}, !- Handle
  conditioned space,                      !- Name
  1,                                      !- Multiplier
  ,                                       !- Ceiling Height {m}
  692.06373070848,                        !- Volume {m3}
  ,                                       !- Floor Area {m2}
  ,                                       !- Zone Inside Convection Algorithm
  ,                                       !- Zone Outside Convection Algorithm
  ,                                       !- Zone Conditioning Equipment List Name
  {8d407796-4e94-47f4-9812-b60a3c099634}, !- Zone Air Inlet Port List
  {5bfa4261-64f8-44c8-ae1f-fadf9319d6e1}, !- Zone Air Exhaust Port List
  {584a6df4-1f08-4b9a-93b4-6806befd4e2d}, !- Zone Air Node Name
  {223341e5-df85-48cc-addd-e198bc2ce6ae}, !- Zone Return Air Port List
  ,                                       !- Primary Daylighting Control Name
  ,                                       !- Fraction of Zone Controlled by Primary Daylighting Control
  ,                                       !- Secondary Daylighting Control Name
  ,                                       !- Fraction of Zone Controlled by Secondary Daylighting Control
  ,                                       !- Illuminance Map Name
  ,                                       !- Group Rendering Name
  {227eabd7-6db4-4185-b4c5-eb7da1bdab43}, !- Thermostat Name
  No;                                     !- Use Ideal Air Loads

OS:Node,
  {d13a42c4-7c30-430c-935e-b11aa39ebb31}, !- Handle
  Node 1,                                 !- Name
  {584a6df4-1f08-4b9a-93b4-6806befd4e2d}, !- Inlet Port
  ;                                       !- Outlet Port

OS:Connection,
  {584a6df4-1f08-4b9a-93b4-6806befd4e2d}, !- Handle
  {53f2a623-6744-4862-aaf8-0ff8ff0c2ff9}, !- Source Object
  11,                                     !- Outlet Port
  {d13a42c4-7c30-430c-935e-b11aa39ebb31}, !- Target Object
  2;                                      !- Inlet Port

OS:PortList,
  {8d407796-4e94-47f4-9812-b60a3c099634}, !- Handle
  {53f2a623-6744-4862-aaf8-0ff8ff0c2ff9}, !- HVAC Component
  {5126070b-5ff0-41a4-9187-ff25bbd586a2}; !- Port 1

OS:PortList,
  {5bfa4261-64f8-44c8-ae1f-fadf9319d6e1}, !- Handle
  {53f2a623-6744-4862-aaf8-0ff8ff0c2ff9}; !- HVAC Component

OS:PortList,
  {223341e5-df85-48cc-addd-e198bc2ce6ae}, !- Handle
  {53f2a623-6744-4862-aaf8-0ff8ff0c2ff9}, !- HVAC Component
  {642492f7-741c-4965-8f7f-1f1ed228a5c7}; !- Port 1

OS:Sizing:Zone,
  {86d4c757-f355-435e-8e61-ac5797f98f71}, !- Handle
  {53f2a623-6744-4862-aaf8-0ff8ff0c2ff9}, !- Zone or ZoneList Name
  SupplyAirTemperature,                   !- Zone Cooling Design Supply Air Temperature Input Method
  14,                                     !- Zone Cooling Design Supply Air Temperature {C}
  11.11,                                  !- Zone Cooling Design Supply Air Temperature Difference {deltaC}
  SupplyAirTemperature,                   !- Zone Heating Design Supply Air Temperature Input Method
  40,                                     !- Zone Heating Design Supply Air Temperature {C}
  11.11,                                  !- Zone Heating Design Supply Air Temperature Difference {deltaC}
  0.0085,                                 !- Zone Cooling Design Supply Air Humidity Ratio {kg-H2O/kg-air}
  0.008,                                  !- Zone Heating Design Supply Air Humidity Ratio {kg-H2O/kg-air}
  ,                                       !- Zone Heating Sizing Factor
  ,                                       !- Zone Cooling Sizing Factor
  DesignDay,                              !- Cooling Design Air Flow Method
  ,                                       !- Cooling Design Air Flow Rate {m3/s}
  ,                                       !- Cooling Minimum Air Flow per Zone Floor Area {m3/s-m2}
  ,                                       !- Cooling Minimum Air Flow {m3/s}
  ,                                       !- Cooling Minimum Air Flow Fraction
  DesignDay,                              !- Heating Design Air Flow Method
  ,                                       !- Heating Design Air Flow Rate {m3/s}
  ,                                       !- Heating Maximum Air Flow per Zone Floor Area {m3/s-m2}
  ,                                       !- Heating Maximum Air Flow {m3/s}
  ,                                       !- Heating Maximum Air Flow Fraction
  No,                                     !- Account for Dedicated Outdoor Air System
  NeutralSupplyAir,                       !- Dedicated Outdoor Air System Control Strategy
  autosize,                               !- Dedicated Outdoor Air Low Setpoint Temperature for Design {C}
  autosize,                               !- Dedicated Outdoor Air High Setpoint Temperature for Design {C}
  Sensible Load Only No Latent Load,      !- Zone Load Sizing Method
  HumidityRatioDifference,                !- Zone Latent Cooling Design Supply Air Humidity Ratio Input Method
  ,                                       !- Zone Dehumidification Design Supply Air Humidity Ratio {kgWater/kgDryAir}
  0.005,                                  !- Zone Cooling Design Supply Air Humidity Ratio Difference {kgWater/kgDryAir}
  HumidityRatioDifference,                !- Zone Latent Heating Design Supply Air Humidity Ratio Input Method
  ,                                       !- Zone Humidification Design Supply Air Humidity Ratio {kgWater/kgDryAir}
  0.005,                                  !- Zone Humidification Design Supply Air Humidity Ratio Difference {kgWater/kgDryAir}
  ,                                       !- Zone Humidistat Dehumidification Set Point Schedule Name
  ,                                       !- Zone Humidistat Humidification Set Point Schedule Name
  ,                                       !- Design Zone Air Distribution Effectiveness in Cooling Mode
  ,                                       !- Design Zone Air Distribution Effectiveness in Heating Mode
  ,                                       !- Design Zone Secondary Recirculation Fraction {dimensionless}
  ,                                       !- Design Minimum Zone Ventilation Efficiency {dimensionless}
  Coincident;                             !- Sizing Option

OS:ZoneHVAC:EquipmentList,
  {5b1cd484-07ae-41b4-a64c-931a4dccd831}, !- Handle
  Zone HVAC Equipment List 1,             !- Name
  {53f2a623-6744-4862-aaf8-0ff8ff0c2ff9}, !- Thermal Zone
  ,                                       !- Load Distribution Scheme
  {482752f0-2b42-4551-852f-70a3f157e11b}, !- Zone Equipment 1
  1,                                      !- Zone Equipment Cooling Sequence 1
  1,                                      !- Zone Equipment Heating or No-Load Sequence 1
  {a626df97-2b67-47b4-aaeb-2e79cab3dcfe}, !- Zone Equipment Sequential Cooling Fraction Schedule Name 1
  {431475b0-e616-4190-94e7-3087123c6d7b}; !- Zone Equipment Sequential Heating Fraction Schedule Name 1

OS:AdditionalProperties,
  {0f73734c-06a2-431e-8db3-1dddbafdf581}, !- Handle
  {53f2a623-6744-4862-aaf8-0ff8ff0c2ff9}, !- Object Name
  ObjectType,                             !- Feature Name 1
  String,                                 !- Feature Data Type 1
  conditioned space;                      !- Feature Value 1

OS:Space,
  {ad3c58cf-04d4-465f-ae6b-99eeb22b929f}, !- Handle
  conditioned space 1,                    !- Name
  ,                                       !- Space Type Name
  ,                                       !- Default Construction Set Name
  ,                                       !- Default Schedule Set Name
  ,                                       !- Direction of Relative North {deg}
  ,                                       !- X Origin {m}
  ,                                       !- Y Origin {m}
  ,                                       !- Z Origin {m}
  ,                                       !- Building Story Name
  {53f2a623-6744-4862-aaf8-0ff8ff0c2ff9}, !- Thermal Zone Name
  ,                                       !- Part of Total Floor Area
  ,                                       !- Design Specification Outdoor Air Object Name
  ,                                       !- Building Unit Name
  692.06373070848;                        !- Volume {m3}

OS:Schedule:Ruleset,
  {1991ff9c-c39d-4924-a11c-c88ce3755d30}, !- Handle
  heating setpoint,                       !- Name
  {75a782cd-f783-45f5-8b02-b2305e647272}, !- Schedule Type Limits Name
  {84522113-a265-4fc6-a8c8-0a8fe151a43d}; !- Default Day Schedule Name

OS:Schedule:Day,
  {84522113-a265-4fc6-a8c8-0a8fe151a43d}, !- Handle
  heating setpoint default day,           !- Name
  {75a782cd-f783-45f5-8b02-b2305e647272}, !- Schedule Type Limits Name
  ,                                       !- Interpolate to Timestep
  24,                                     !- Hour 1
  0,                                      !- Minute 1
  0;                                      !- Value Until Time 1

OS:Schedule:Rule,
  {7a04f4ec-2e16-4e69-9d42-7279dc338ebd}, !- Handle
  heating setpoint allday rule,           !- Name
  {1991ff9c-c39d-4924-a11c-c88ce3755d30}, !- Schedule Ruleset Name
  0,                                      !- Rule Order
  {cf44cd12-0129-4aef-ab7c-93947dfd516c}, !- Day Schedule Name
  Yes,                                    !- Apply Sunday
  Yes,                                    !- Apply Monday
  Yes,                                    !- Apply Tuesday
  Yes,                                    !- Apply Wednesday
  Yes,                                    !- Apply Thursday
  Yes,                                    !- Apply Friday
  Yes,                                    !- Apply Saturday
  DateRange,                              !- Date Specification Type
  1,                                      !- Start Month
  1,                                      !- Start Day
  12,                                     !- End Month
  31;                                     !- End Day

OS:Schedule:Day,
  {cf44cd12-0129-4aef-ab7c-93947dfd516c}, !- Handle
  heating setpoint day,                   !- Name
  {75a782cd-f783-45f5-8b02-b2305e647272}, !- Schedule Type Limits Name
  ,                                       !- Interpolate to Timestep
  24,                                     !- Hour 1
  0,                                      !- Minute 1
  20;                                     !- Value Until Time 1

OS:Schedule:Ruleset,
  {b9626af2-9aaf-47fd-8a61-686330465695}, !- Handle
  cooling setpoint,                       !- Name
  {75a782cd-f783-45f5-8b02-b2305e647272}, !- Schedule Type Limits Name
  {252fd5bb-d973-45ec-9710-2af712778686}; !- Default Day Schedule Name

OS:Schedule:Day,
  {252fd5bb-d973-45ec-9710-2af712778686}, !- Handle
  cooling setpoint default day,           !- Name
  {75a782cd-f783-45f5-8b02-b2305e647272}, !- Schedule Type Limits Name
  ,                                       !- Interpolate to Timestep
  24,                                     !- Hour 1
  0,                                      !- Minute 1
  0;                                      !- Value Until Time 1

OS:Schedule:Rule,
  {4815ed42-59b6-45ed-af24-8933541b9e29}, !- Handle
  cooling setpoint allday rule,           !- Name
  {b9626af2-9aaf-47fd-8a61-686330465695}, !- Schedule Ruleset Name
  0,                                      !- Rule Order
  {bfc76291-416d-4953-aad9-4d60ad47c9b1}, !- Day Schedule Name
  Yes,                                    !- Apply Sunday
  Yes,                                    !- Apply Monday
  Yes,                                    !- Apply Tuesday
  Yes,                                    !- Apply Wednesday
  Yes,                                    !- Apply Thursday
  Yes,                                    !- Apply Friday
  Yes,                                    !- Apply Saturday
  DateRange,                              !- Date Specification Type
  1,                                      !- Start Month
  1,                                      !- Start Day
  12,                                     !- End Month
  31;                                     !- End Day

OS:Schedule:Day,
  {bfc76291-416d-4953-aad9-4d60ad47c9b1}, !- Handle
  cooling setpoint day,                   !- Name
  {75a782cd-f783-45f5-8b02-b2305e647272}, !- Schedule Type Limits Name
  ,                                       !- Interpolate to Timestep
  24,                                     !- Hour 1
  0,                                      !- Minute 1
  25.5555555555556;                       !- Value Until Time 1

OS:ThermostatSetpoint:DualSetpoint,
  {227eabd7-6db4-4185-b4c5-eb7da1bdab43}, !- Handle
  conditioned space temperature setpoint, !- Name
  {1991ff9c-c39d-4924-a11c-c88ce3755d30}, !- Heating Setpoint Temperature Schedule Name
  {b9626af2-9aaf-47fd-8a61-686330465695}, !- Cooling Setpoint Temperature Schedule Name
  0;                                      !- Temperature Difference Between Cutout And Setpoint {deltaC}

OS:ScheduleTypeLimits,
  {75a782cd-f783-45f5-8b02-b2305e647272}, !- Handle
  Temperature,                            !- Name
  ,                                       !- Lower Limit Value
  ,                                       !- Upper Limit Value
  Continuous,                             !- Numeric Type
  Temperature;                            !- Unit Type

OS:Surface,
  {584180a8-8cf4-471a-adc8-a1982af81262}, !- Handle
  Roof1,                                  !- Name
  RoofCeiling,                            !- Surface Type
  {ff0d7125-9ea2-4500-a867-6a2c3e0d7c5c}, !- Construction Name
  {dd3cfd62-ed03-4776-b610-f8be46b2de28}, !- Space Name
  Outdoors,                               !- Outside Boundary Condition
  ,                                       !- Outside Boundary Condition Object
  SunExposed,                             !- Sun Exposure
  WindExposed,                            !- Wind Exposure
  ,                                       !- View Factor to Ground
  ,                                       !- Number of Vertices
  -18.7742033914137, 41.5974007452599, 2.4384, !- X,Y,Z Vertex 1 {m}
  -18.7742033914137, 33.6309759081827, 6.42161241853859, !- X,Y,Z Vertex 2 {m}
  -9.86746965474012, 33.6309759081827, 6.42161241853859, !- X,Y,Z Vertex 3 {m}
  -9.86746965474012, 41.5974007452599, 2.4384; !- X,Y,Z Vertex 4 {m}

OS:AdditionalProperties,
  {be88eb18-2124-4cab-8fd7-d5f8b0e2d36b}, !- Handle
  {584180a8-8cf4-471a-adc8-a1982af81262}, !- Object Name
  Length,                                 !- Feature Name 1
  Double,                                 !- Feature Data Type 1
  29.221567377538118,                     !- Feature Value 1
  Width,                                  !- Feature Name 2
  Double,                                 !- Feature Data Type 2
  29.221567377538118,                     !- Feature Value 2
  Azimuth,                                !- Feature Name 3
  Integer,                                !- Feature Data Type 3
  0,                                      !- Feature Value 3
  Tilt,                                   !- Feature Name 4
  Double,                                 !- Feature Data Type 4
  0.5,                                    !- Feature Value 4
  SurfaceType,                            !- Feature Name 5
  String,                                 !- Feature Data Type 5
  Roof;                                   !- Feature Value 5

OS:ThermalZone,
  {23941f72-4ab5-475f-9872-f4355fec476c}, !- Handle
  attic - vented,                         !- Name
  1,                                      !- Multiplier
  ,                                       !- Ceiling Height {m}
  126.003218814318,                       !- Volume {m3}
  ,                                       !- Floor Area {m2}
  ,                                       !- Zone Inside Convection Algorithm
  ,                                       !- Zone Outside Convection Algorithm
  ,                                       !- Zone Conditioning Equipment List Name
  {71f87774-d274-421b-872a-139184116142}, !- Zone Air Inlet Port List
  {ff841ae2-9b09-48ca-a384-021c4fc1d894}, !- Zone Air Exhaust Port List
  {60ad7146-d892-4280-aaca-69bf695fb04a}, !- Zone Air Node Name
  {87a5910b-40f5-4fde-9471-76fc2ec56a85}, !- Zone Return Air Port List
  ,                                       !- Primary Daylighting Control Name
  ,                                       !- Fraction of Zone Controlled by Primary Daylighting Control
  ,                                       !- Secondary Daylighting Control Name
  ,                                       !- Fraction of Zone Controlled by Secondary Daylighting Control
  ,                                       !- Illuminance Map Name
  ,                                       !- Group Rendering Name
  ,                                       !- Thermostat Name
  No;                                     !- Use Ideal Air Loads

OS:Node,
  {38cdfdd9-4816-4e5e-ad4d-a920f384ba31}, !- Handle
  Node 2,                                 !- Name
  {60ad7146-d892-4280-aaca-69bf695fb04a}, !- Inlet Port
  ;                                       !- Outlet Port

OS:Connection,
  {60ad7146-d892-4280-aaca-69bf695fb04a}, !- Handle
  {23941f72-4ab5-475f-9872-f4355fec476c}, !- Source Object
  11,                                     !- Outlet Port
  {38cdfdd9-4816-4e5e-ad4d-a920f384ba31}, !- Target Object
  2;                                      !- Inlet Port

OS:PortList,
  {71f87774-d274-421b-872a-139184116142}, !- Handle
  {23941f72-4ab5-475f-9872-f4355fec476c}; !- HVAC Component

OS:PortList,
  {ff841ae2-9b09-48ca-a384-021c4fc1d894}, !- Handle
  {23941f72-4ab5-475f-9872-f4355fec476c}; !- HVAC Component

OS:PortList,
  {87a5910b-40f5-4fde-9471-76fc2ec56a85}, !- Handle
  {23941f72-4ab5-475f-9872-f4355fec476c}; !- HVAC Component

OS:Sizing:Zone,
  {a90f5a03-938e-4eea-be30-f8a9a73baddf}, !- Handle
  {23941f72-4ab5-475f-9872-f4355fec476c}, !- Zone or ZoneList Name
  SupplyAirTemperature,                   !- Zone Cooling Design Supply Air Temperature Input Method
  14,                                     !- Zone Cooling Design Supply Air Temperature {C}
  11.11,                                  !- Zone Cooling Design Supply Air Temperature Difference {deltaC}
  SupplyAirTemperature,                   !- Zone Heating Design Supply Air Temperature Input Method
  40,                                     !- Zone Heating Design Supply Air Temperature {C}
  11.11,                                  !- Zone Heating Design Supply Air Temperature Difference {deltaC}
  0.0085,                                 !- Zone Cooling Design Supply Air Humidity Ratio {kg-H2O/kg-air}
  0.008,                                  !- Zone Heating Design Supply Air Humidity Ratio {kg-H2O/kg-air}
  ,                                       !- Zone Heating Sizing Factor
  ,                                       !- Zone Cooling Sizing Factor
  DesignDay,                              !- Cooling Design Air Flow Method
  ,                                       !- Cooling Design Air Flow Rate {m3/s}
  ,                                       !- Cooling Minimum Air Flow per Zone Floor Area {m3/s-m2}
  ,                                       !- Cooling Minimum Air Flow {m3/s}
  ,                                       !- Cooling Minimum Air Flow Fraction
  DesignDay,                              !- Heating Design Air Flow Method
  ,                                       !- Heating Design Air Flow Rate {m3/s}
  ,                                       !- Heating Maximum Air Flow per Zone Floor Area {m3/s-m2}
  ,                                       !- Heating Maximum Air Flow {m3/s}
  ,                                       !- Heating Maximum Air Flow Fraction
  No,                                     !- Account for Dedicated Outdoor Air System
  NeutralSupplyAir,                       !- Dedicated Outdoor Air System Control Strategy
  autosize,                               !- Dedicated Outdoor Air Low Setpoint Temperature for Design {C}
  autosize,                               !- Dedicated Outdoor Air High Setpoint Temperature for Design {C}
  Sensible Load Only No Latent Load,      !- Zone Load Sizing Method
  HumidityRatioDifference,                !- Zone Latent Cooling Design Supply Air Humidity Ratio Input Method
  ,                                       !- Zone Dehumidification Design Supply Air Humidity Ratio {kgWater/kgDryAir}
  0.005,                                  !- Zone Cooling Design Supply Air Humidity Ratio Difference {kgWater/kgDryAir}
  HumidityRatioDifference,                !- Zone Latent Heating Design Supply Air Humidity Ratio Input Method
  ,                                       !- Zone Humidification Design Supply Air Humidity Ratio {kgWater/kgDryAir}
  0.005,                                  !- Zone Humidification Design Supply Air Humidity Ratio Difference {kgWater/kgDryAir}
  ,                                       !- Zone Humidistat Dehumidification Set Point Schedule Name
  ,                                       !- Zone Humidistat Humidification Set Point Schedule Name
  ,                                       !- Design Zone Air Distribution Effectiveness in Cooling Mode
  ,                                       !- Design Zone Air Distribution Effectiveness in Heating Mode
  ,                                       !- Design Zone Secondary Recirculation Fraction {dimensionless}
  ,                                       !- Design Minimum Zone Ventilation Efficiency {dimensionless}
  Coincident;                             !- Sizing Option

OS:ZoneHVAC:EquipmentList,
  {708b9012-44fb-4342-99ae-24be5f243736}, !- Handle
  Zone HVAC Equipment List 2,             !- Name
  {23941f72-4ab5-475f-9872-f4355fec476c}; !- Thermal Zone

OS:AdditionalProperties,
  {e5d1e652-dc14-48c6-b441-8bd09b6a2e0e}, !- Handle
  {23941f72-4ab5-475f-9872-f4355fec476c}, !- Object Name
  ObjectType,                             !- Feature Name 1
  String,                                 !- Feature Data Type 1
  attic - vented;                         !- Feature Value 1

OS:Space,
  {dd3cfd62-ed03-4776-b610-f8be46b2de28}, !- Handle
  attic - vented 1,                       !- Name
  ,                                       !- Space Type Name
  ,                                       !- Default Construction Set Name
  ,                                       !- Default Schedule Set Name
  ,                                       !- Direction of Relative North {deg}
  ,                                       !- X Origin {m}
  ,                                       !- Y Origin {m}
  ,                                       !- Z Origin {m}
  ,                                       !- Building Story Name
  {23941f72-4ab5-475f-9872-f4355fec476c}, !- Thermal Zone Name
  ,                                       !- Part of Total Floor Area
  ,                                       !- Design Specification Outdoor Air Object Name
  ,                                       !- Building Unit Name
  126.003218814318;                       !- Volume {m3}

OS:Material,
  {8fa63044-7c6e-40cf-b49c-7e70782ed287}, !- Handle
  asphalt or fiberglass shingles,         !- Name
  Rough,                                  !- Roughness
  0.00635,                                !- Thickness {m}
  0.162714,                               !- Conductivity {W/m-K}
  1121.4,                                 !- Density {kg/m3}
  1465.45,                                !- Specific Heat {J/kg-K}
  0.9,                                    !- Thermal Absorptance
  0.85,                                   !- Solar Absorptance