
OS:Version,
  {8335370e-4f0e-4326-a90a-cf1cd5323f8c}, !- Handle
  3.10.0;                                 !- Version Identifier

OS:SimulationControl,
  {c03bf97e-dbc3-4c13-ba58-df91cb15264d}, !- Handle
  ,                                       !- Do Zone Sizing Calculation
  ,                                       !- Do System Sizing Calculation
  ,                                       !- Do Plant Sizing Calculation
  No;                                     !- Run Simulation for Sizing Periods

OS:Timestep,
  {562f2f4f-26ea-4ef7-87a5-7141f6b0400f}, !- Handle
  1;                                      !- Number of Timesteps per Hour

OS:ShadowCalculation,
  {2b1f1575-8fe7-48a4-8bed-5fe64276f36d}, !- Handle
  PolygonClipping,                        !- Shading Calculation Method
  ,                                       !- Shading Calculation Update Frequency Method
  20,                                     !- Shading Calculation Update Frequency
  200,                                    !- Maximum Figures in Shadow Overlap Calculations
  ,                                       !- Polygon Clipping Algorithm
  512,                                    !- Pixel Counting Resolution
  ,                                       !- Sky Diffuse Modeling Algorithm
  No,                                     !- Output External Shading Calculation Results
  No,                                     !- Disable Self-Shading Within Shading Zone Groups
  No;                                     !- Disable Self-Shading From Shading Zone Groups to Other Zones

OS:SurfaceConvectionAlgorithm:Outside,
  {404ea557-cfcb-49c2-80c8-c7955cf0d9b7}, !- Handle
  DOE-2;                                  !- Algorithm

OS:SurfaceConvectionAlgorithm:Inside,
  {f6440e7f-7cd6-4b6d-99c4-b7f12ef869cc}, !- Handle
  TARP;                                   !- Algorithm

OS:ZoneCapacitanceMultiplier:ResearchSpecial,
  {26263c8f-76a0-45ce-8a41-2730aba8c0d0}, !- Handle
  7,                                      !- Temperature Capacity Multiplier
  15,                                     !- Humidity Capacity Multiplier
  ;                                       !- Carbon Dioxide Capacity Multiplier

OS:ConvergenceLimits,
  {42e24ba8-8147-4183-a779-10c27c7d259e}, !- Handle
  0;                                      !- Minimum System Timestep {minutes}

OS:RunPeriod,
  {a03394f1-9130-4f00-92b7-3956ec910065}, !- Handle
  Run Period 1,                           !- Name
  1,                                      !- Begin Month
  1,                                      !- Begin Day of Month
  12,                                     !- End Month
  31,                                     !- End Day of Month
  ,                                       !- Use Weather File Holidays and Special Days
  ,                                       !- Use Weather File Daylight Saving Period
  ,                                       !- Apply Weekend Holiday Rule
  ,                                       !- Use Weather File Rain Indicators
  ,                                       !- Use Weather File Snow Indicators
  ;                                       !- Number of Times Runperiod to be Repeated

OS:PerformancePrecisionTradeoffs,
  {43759e3d-2f6a-49da-b38c-61a499a475f2}, !- Handle
  ,                                       !- Use Coil Direct Solutions
  CarrollMRT;                             !- Zone Radiant Exchange Algorithm

OS:WeatherFile,
  {5e1ddca5-4422-42e8-accb-bcc6f84f21ae}, !- Handle
  Buffalo Niagara Intl Ap,                !- City
  NY,                                     !- State Province Region
  USA,                                    !- Country
  TMY3,                                   !- Data Source
  725280,                                 !- WMO Number
  42.93,                                  !- Latitude {deg}
  -78.73,                                 !- Longitude {deg}
  -5,                                     !- Time Zone {hr}
  215,                                    !- Elevation {m}
  /Users/nmoore/github/urbanopt-example-geojson-project/example_project/weather/USA_NY_Buffalo-Greater.Buffalo.Intl.AP.725280_TMY3.epw, !- Url
  6B50E0FF,                               !- Checksum
  ,                                       !- Start Date Actual Year
  Sunday;                                 !- Start Day of Week

OS:YearDescription,
  {465fc224-1be1-4e7a-b6de-d635d0260b64}, !- Handle
  2007,                                   !- Calendar Year
  ,                                       !- Day of Week for Start Day
  ;                                       !- Is Leap Year

OS:Site,
  {170e35ca-f48a-402e-b417-ff681c12dc88}, !- Handle
  Buffalo Niagara Intl Ap_NY,             !- Name
  42.93,                                  !- Latitude {deg}
  -78.73,                                 !- Longitude {deg}
  -5,                                     !- Time Zone {hr}
  215,                                    !- Elevation {m}
  Suburbs,                                !- Terrain
  Yes;                                    !- Keep Site Location Information

OS:RunPeriodControl:DaylightSavingTime,
  {ff1edb72-4474-486f-b796-7ee3a5efde1c}, !- Handle
  Mar 12,                                 !- Start Date
  Nov 5;                                  !- End Date

OS:Site:GroundTemperature:Shallow,
  {c5ca7403-e30e-4975-889b-caf9e2434859}, !- Handle
  4.30207395723828,                       !- January Surface Ground Temperature {C}
  2.29327249652502,                       !- February Surface Ground Temperature {C}
  2.13240047156047,                       !- March Surface Ground Temperature {C}
  3.08567940719286,                       !- April Surface Ground Temperature {C}
  6.91256312497526,                       !- May Surface Ground Temperature {C}
  10.7216195949507,                       !- June Surface Ground Temperature {C}
  14.0238679822574,                       !- July Surface Ground Temperature {C}
  16.1157611184724,                       !- August Surface Ground Temperature {C}
  16.2934789303462,                       !- September Surface Ground Temperature {C}
  14.5920754632847,                       !- October Surface Ground Temperature {C}
  11.374036348653,                        !- November Surface Ground Temperature {C}
  7.68182621661674;                       !- December Surface Ground Temperature {C}

OS:ThermalZone,
  {1c188631-c0db-4eea-ad34-f2c7994d20a3}, !- Handle
  conditioned space,                      !- Name
  1,                                      !- Multiplier
  ,                                       !- Ceiling Height {m}
  475.79381486208,                        !- Volume {m3}
  ,                                       !- Floor Area {m2}
  ,                                       !- Zone Inside Convection Algorithm
  ,                                       !- Zone Outside Convection Algorithm
  ,                                       !- Zone Conditioning Equipment List Name
  {43415f27-888d-4d2b-835c-8adb3c81cf42}, !- Zone Air Inlet Port List
  {8f1938a1-fbc7-4fb0-a1b7-1a3e072ca03a}, !- Zone Air Exhaust Port List
  {109f5ccd-ab9d-4bba-b977-eaffac0eac69}, !- Zone Air Node Name
  {e4fe5804-edc2-407b-98d8-40b32f344294}, !- Zone Return Air Port List
  ,                                       !- Primary Daylighting Control Name
  ,                                       !- Fraction of Zone Controlled by Primary Daylighting Control
  ,                                       !- Secondary Daylighting Control Name
  ,                                       !- Fraction of Zone Controlled by Secondary Daylighting Control
  ,                                       !- Illuminance Map Name
  ,                                       !- Group Rendering Name
  {65214245-7fb0-4c7e-93c3-765002299f54}, !- Thermostat Name
  No;                                     !- Use Ideal Air Loads

OS:Node,
  {15ea4f47-e5ec-410c-b64e-6696b2f70122}, !- Handle
  Node 1,                                 !- Name
  {109f5ccd-ab9d-4bba-b977-eaffac0eac69}, !- Inlet Port
  ;                                       !- Outlet Port

OS:Connection,
  {109f5ccd-ab9d-4bba-b977-eaffac0eac69}, !- Handle
  {1c188631-c0db-4eea-ad34-f2c7994d20a3}, !- Source Object
  11,                                     !- Outlet Port
  {15ea4f47-e5ec-410c-b64e-6696b2f70122}, !- Target Object
  2;                                      !- Inlet Port

OS:PortList,
  {43415f27-888d-4d2b-835c-8adb3c81cf42}, !- Handle
  {1c188631-c0db-4eea-ad34-f2c7994d20a3}, !- HVAC Component
  {20b6aa57-c50f-4007-ba54-671b62389581}; !- Port 1

OS:PortList,
  {8f1938a1-fbc7-4fb0-a1b7-1a3e072ca03a}, !- Handle
  {1c188631-c0db-4eea-ad34-f2c7994d20a3}; !- HVAC Component

OS:PortList,
  {e4fe5804-edc2-407b-98d8-40b32f344294}, !- Handle
  {1c188631-c0db-4eea-ad34-f2c7994d20a3}, !- HVAC Component
  {38f6e863-2406-4e7e-9648-f40e7c67450d}; !- Port 1

OS:Sizing:Zone,
  {be579cbd-9253-4a1e-9b66-77adfc1d3db2}, !- Handle
  {1c188631-c0db-4eea-ad34-f2c7994d20a3}, !- Zone or ZoneList Name
  SupplyAirTemperature,                   !- Zone Cooling Design Supply Air Temperature Input Method
  14,                                     !- Zone Cooling Design Supply Air Temperature {C}
  11.11,                                  !- Zone Cooling Design Supply Air Temperature Difference {deltaC}
  SupplyAirTemperature,                   !- Zone Heating Design Supply Air Temperature Input Method
  40,                                     !- Zone Heating Design Supply Air Temperature {C}
  11.11,                                  !- Zone Heating Design Supply Air Temperature Difference {deltaC}
  0.0085,                                 !- Zone Cooling Design Supply Air Humidity Ratio {kg-H2O/kg-air}
  0.008,                                  !- Zone Heating Design Supply Air Humidity Ratio {kg-H2O/kg-air}
  ,                                       !- Zone Heating Sizing Factor
  ,                                       !- Zone Cooling Sizing Factor
  DesignDay,                              !- Cooling Design Air Flow Method
  ,                                       !- Cooling Design Air Flow Rate {m3/s}
  ,                                       !- Cooling Minimum Air Flow per Zone Floor Area {m3/s-m2}
  ,                                       !- Cooling Minimum Air Flow {m3/s}
  ,                                       !- Cooling Minimum Air Flow Fraction
  DesignDay,                              !- Heating Design Air Flow Method
  ,                                       !- Heating Design Air Flow Rate {m3/s}
  ,                                       !- Heating Maximum Air Flow per Zone Floor Area {m3/s-m2}
  ,                                       !- Heating Maximum Air Flow {m3/s}
  ,                                       !- Heating Maximum Air Flow Fraction
  No,                                     !- Account for Dedicated Outdoor Air System
  NeutralSupplyAir,                       !- Dedicated Outdoor Air System Control Strategy
  autosize,                               !- Dedicated Outdoor Air Low Setpoint Temperature for Design {C}
  autosize,                               !- Dedicated Outdoor Air High Setpoint Temperature for Design {C}
  Sensible Load Only No Latent Load,      !- Zone Load Sizing Method
  HumidityRatioDifference,                !- Zone Latent Cooling Design Supply Air Humidity Ratio Input Method
  ,                                       !- Zone Dehumidification Design Supply Air Humidity Ratio {kgWater/kgDryAir}
  0.005,                                  !- Zone Cooling Design Supply Air Humidity Ratio Difference {kgWater/kgDryAir}
  HumidityRatioDifference,                !- Zone Latent Heating Design Supply Air Humidity Ratio Input Method
  ,                                       !- Zone Humidification Design Supply Air Humidity Ratio {kgWater/kgDryAir}
  0.005,                                  !- Zone Humidification Design Supply Air Humidity Ratio Difference {kgWater/kgDryAir}
  ,                                       !- Zone Humidistat Dehumidification Set Point Schedule Name
  ,                                       !- Zone Humidistat Humidification Set Point Schedule Name
  ,                                       !- Design Zone Air Distribution Effectiveness in Cooling Mode
  ,                                       !- Design Zone Air Distribution Effectiveness in Heating Mode
  ,                                       !- Design Zone Secondary Recirculation Fraction {dimensionless}
  ,                                       !- Design Minimum Zone Ventilation Efficiency {dimensionless}
  Coincident;                             !- Sizing Option

OS:ZoneHVAC:EquipmentList,
  {6327828f-9ef1-4721-8146-d38bfc5129fa}, !- Handle
  Zone HVAC Equipment List 1,             !- Name
  {1c188631-c0db-4eea-ad34-f2c7994d20a3}, !- Thermal Zone
  ,                                       !- Load Distribution Scheme
  {ef704aba-345e-4883-b44d-6fd5f86e858f}, !- Zone Equipment 1
  1,                                      !- Zone Equipment Cooling Sequence 1
  1,                                      !- Zone Equipment Heating or No-Load Sequence 1
  {727641ee-706c-494f-b9f2-3ebf07f20209}, !- Zone Equipment Sequential Cooling Fraction Schedule Name 1
  {abd43107-e889-4046-9b68-9bb6016f629a}; !- Zone Equipment Sequential Heating Fraction Schedule Name 1

OS:AdditionalProperties,
  {23e298f0-9138-448f-89a3-474b9b67f8e1}, !- Handle
  {1c188631-c0db-4eea-ad34-f2c7994d20a3}, !- Object Name
  ObjectType,                             !- Feature Name 1
  String,                                 !- Feature Data Type 1
  conditioned space;                      !- Feature Value 1

OS:Space,
  {0b520f9d-d188-4a4c-b311-fc9bcd4142b7}, !- Handle
  conditioned space 1,                    !- Name
  ,                                       !- Space Type Name
  ,                                       !- Default Construction Set Name
  ,                                       !- Default Schedule Set Name
  ,                                       !- Direction of Relative North {deg}
  ,                                       !- X Origin {m}
  ,                                       !- Y Origin {m}
  ,                                       !- Z Origin {m}
  ,                                       !- Building Story Name
  {1c188631-c0db-4eea-ad34-f2c7994d20a3}, !- Thermal Zone Name
  ,                                       !- Part of Total Floor Area
  ,                                       !- Design Specification Outdoor Air Object Name
  ,                                       !- Building Unit Name
  475.79381486208;                        !- Volume {m3}

OS:Schedule:Ruleset,
  {b07b6528-cdc5-4ba2-ba31-513253b6e6b6}, !- Handle
  heating setpoint,                       !- Name
  {6bc804c7-8ebb-42cf-8d06-cbb81fb83904}, !- Schedule Type Limits Name
  {3e9f00c8-4e99-4a95-b15d-898d421aac37}; !- Default Day Schedule Name

OS:Schedule:Day,
  {3e9f00c8-4e99-4a95-b15d-898d421aac37}, !- Handle
  heating setpoint default day,           !- Name
  {6bc804c7-8ebb-42cf-8d06-cbb81fb83904}, !- Schedule Type Limits Name
  ,                                       !- Interpolate to Timestep
  24,                                     !- Hour 1
  0,                                      !- Minute 1
  0;                                      !- Value Until Time 1

OS:Schedule:Rule,
  {c3b21ea2-7dd1-4381-94a3-665aaa853034}, !- Handle
  heating setpoint allday rule,           !- Name
  {b07b6528-cdc5-4ba2-ba31-513253b6e6b6}, !- Schedule Ruleset Name
  0,                                      !- Rule Order
  {84d4b9fb-db21-4cfc-a8c3-08cd4389834f}, !- Day Schedule Name
  Yes,                                    !- Apply Sunday
  Yes,                                    !- Apply Monday
  Yes,                                    !- Apply Tuesday
  Yes,                                    !- Apply Wednesday
  Yes,                                    !- Apply Thursday
  Yes,                                    !- Apply Friday
  Yes,                                    !- Apply Saturday
  DateRange,                              !- Date Specification Type
  1,                                      !- Start Month
  1,                                      !- Start Day
  12,                                     !- End Month
  31;                                     !- End Day

OS:Schedule:Day,
  {84d4b9fb-db21-4cfc-a8c3-08cd4389834f}, !- Handle
  heating setpoint day,                   !- Name
  {6bc804c7-8ebb-42cf-8d06-cbb81fb83904}, !- Schedule Type Limits Name
  ,                                       !- Interpolate to Timestep
  24,                                     !- Hour 1
  0,                                      !- Minute 1
  20;                                     !- Value Until Time 1

OS:Schedule:Ruleset,
  {e7732d6b-922b-4b1e-a426-45fac3690b56}, !- Handle
  cooling setpoint,                       !- Name
  {6bc804c7-8ebb-42cf-8d06-cbb81fb83904}, !- Schedule Type Limits Name
  {3ffd831f-06e7-4a15-8d60-19ea67856827}; !- Default Day Schedule Name

OS:Schedule:Day,
  {3ffd831f-06e7-4a15-8d60-19ea67856827}, !- Handle
  cooling setpoint default day,           !- Name
  {6bc804c7-8ebb-42cf-8d06-cbb81fb83904}, !- Schedule Type Limits Name
  ,                                       !- Interpolate to Timestep
  24,                                     !- Hour 1
  0,                                      !- Minute 1
  0;                                      !- Value Until Time 1

OS:Schedule:Rule,
  {c6a1dd2d-d45c-4308-b26b-c4032a93962c}, !- Handle
  cooling setpoint allday rule,           !- Name
  {e7732d6b-922b-4b1e-a426-45fac3690b56}, !- Schedule Ruleset Name
  0,                                      !- Rule Order
  {8b7559f4-167d-42e0-8ec2-27e8a12ccc61}, !- Day Schedule Name
  Yes,                                    !- Apply Sunday
  Yes,                                    !- Apply Monday
  Yes,                                    !- Apply Tuesday
  Yes,                                    !- Apply Wednesday
  Yes,                                    !- Apply Thursday
  Yes,                                    !- Apply Friday
  Yes,                                    !- Apply Saturday
  DateRange,                              !- Date Specification Type
  1,                                      !- Start Month
  1,                                      !- Start Day
  12,                                     !- End Month
  31;                                     !- End Day

OS:Schedule:Day,
  {8b7559f4-167d-42e0-8ec2-27e8a12ccc61}, !- Handle
  cooling setpoint day,                   !- Name
  {6bc804c7-8ebb-42cf-8d06-cbb81fb83904}, !- Schedule Type Limits Name
  ,                                       !- Interpolate to Timestep
  24,                                     !- Hour 1
  0,                                      !- Minute 1
  25.5555555555556;                       !- Value Until Time 1

OS:ThermostatSetpoint:DualSetpoint,
  {65214245-7fb0-4c7e-93c3-765002299f54}, !- Handle
  conditioned space temperature setpoint, !- Name
  {b07b6528-cdc5-4ba2-ba31-513253b6e6b6}, !- Heating Setpoint Temperature Schedule Name
  {e7732d6b-922b-4b1e-a426-45fac3690b56}, !- Cooling Setpoint Temperature Schedule Name
  0;                                      !- Temperature Difference Between Cutout And Setpoint {deltaC}

OS:ScheduleTypeLimits,
  {6bc804c7-8ebb-42cf-8d06-cbb81fb83904}, !- Handle
  Temperature,                            !- Name
  ,                                       !- Lower Limit Value
  ,                                       !- Upper Limit Value
  Continuous,                             !- Numeric Type
  Temperature;                            !- Unit Type

OS:Surface,
  {f2546be8-207a-412c-9d54-85f5b53af97b}, !- Handle
  Roof1,                                  !- Name
  RoofCeiling,                            !- Surface Type
  {cf522dee-2ce5-46a0-b5a8-0962f719fe4e}, !- Construction Name
  {356cd11f-3e17-4fb2-babf-6ba10acee2f7}, !- Space Name
  Outdoors,                               !- Outside Boundary Condition
  ,                                       !- Outside Boundary Condition Object
  SunExposed,                             !- Sun Exposure
  WindExposed,                            !- Wind Exposure
  ,                                       !- View Factor to Ground
  ,                                       !- Number of Vertices
  -25.0448166683368, 35.3267874683368, 2.4384, !- X,Y,Z Vertex 1 {m}
  -25.0448166683368, 27.3603626312596, 6.42161241853859, !- X,Y,Z Vertex 2 {m}
  -16.1380829316632, 27.3603626312596, 6.42161241853859, !- X,Y,Z Vertex 3 {m}
  -16.1380829316632, 35.3267874683368, 2.4384; !- X,Y,Z Vertex 4 {m}

OS:AdditionalProperties,
  {88dd085e-a969-4eb4-ae48-4bb49206deef}, !- Handle
  {f2546be8-207a-412c-9d54-85f5b53af97b}, !- Object Name
  Length,                                 !- Feature Name 1
  Double,                                 !- Feature Data Type 1
  29.221567377538118,                     !- Feature Value 1
  Width,                                  !- Feature Name 2
  Double,                                 !- Feature Data Type 2
  29.221567377538118,                     !- Feature Value 2
  Azimuth,                                !- Feature Name 3
  Integer,                                !- Feature Data Type 3
  0,                                      !- Feature Value 3
  Tilt,                                   !- Feature Name 4
  Double,                                 !- Feature Data Type 4
  0.5,                                    !- Feature Value 4
  SurfaceType,                            !- Feature Name 5
  String,                                 !- Feature Data Type 5
  Roof;                                   !- Feature Value 5

OS:ThermalZone,
  {a891a0e9-ca9a-49d5-8255-8494318e00e4}, !- Handle
  attic - vented,                         !- Name
  1,                                      !- Multiplier
  ,                                       !- Ceiling Height {m}
  126.003218814318,                       !- Volume {m3}
  ,                                       !- Floor Area {m2}
  ,                                       !- Zone Inside Convection Algorithm
  ,                                       !- Zone Outside Convection Algorithm
  ,                                       !- Zone Conditioning Equipment List Name
  {4a8d8d24-cca7-489e-ab76-bee08a1c9348}, !- Zone Air Inlet Port List
  {d4958b1b-2384-4429-ac17-5770ce8c0f21}, !- Zone Air Exhaust Port List
  {e337ef0b-2812-4350-afc4-33cbe68a3d6e}, !- Zone Air Node Name
  {f94b7429-898f-43cd-bf73-0e98cc79979a}, !- Zone Return Air Port List
  ,                                       !- Primary Daylighting Control Name
  ,                                       !- Fraction of Zone Controlled by Primary Daylighting Control
  ,                                       !- Secondary Daylighting Control Name
  ,                                       !- Fraction of Zone Controlled by Secondary Daylighting Control
  ,                                       !- Illuminance Map Name
  ,                                       !- Group Rendering Name
  ,                                       !- Thermostat Name
  No;                                     !- Use Ideal Air Loads

OS:Node,
  {589df715-be9e-4fa7-a816-0f82586ac558}, !- Handle
  Node 2,                                 !- Name
  {e337ef0b-2812-4350-afc4-33cbe68a3d6e}, !- Inlet Port
  ;                                       !- Outlet Port

OS:Connection,
  {e337ef0b-2812-4350-afc4-33cbe68a3d6e}, !- Handle
  {a891a0e9-ca9a-49d5-8255-8494318e00e4}, !- Source Object
  11,                                     !- Outlet Port
  {589df715-be9e-4fa7-a816-0f82586ac558}, !- Target Object
  2;                                      !- Inlet Port

OS:PortList,
  {4a8d8d24-cca7-489e-ab76-bee08a1c9348}, !- Handle
  {a891a0e9-ca9a-49d5-8255-8494318e00e4}; !- HVAC Component

OS:PortList,
  {d4958b1b-2384-4429-ac17-5770ce8c0f21}, !- Handle
  {a891a0e9-ca9a-49d5-8255-8494318e00e4}; !- HVAC Component

OS:PortList,
  {f94b7429-898f-43cd-bf73-0e98cc79979a}, !- Handle
  {a891a0e9-ca9a-49d5-8255-8494318e00e4}; !- HVAC Component

OS:Sizing:Zone,
  {7d49288e-4c7c-4996-b552-01f260ee5b24}, !- Handle
  {a891a0e9-ca9a-49d5-8255-8494318e00e4}, !- Zone or ZoneList Name
  SupplyAirTemperature,                   !- Zone Cooling Design Supply Air Temperature Input Method
  14,                                     !- Zone Cooling Design Supply Air Temperature {C}
  11.11,                                  !- Zone Cooling Design Supply Air Temperature Difference {deltaC}
  SupplyAirTemperature,                   !- Zone Heating Design Supply Air Temperature Input Method
  40,                                     !- Zone Heating Design Supply Air Temperature {C}
  11.11,                                  !- Zone Heating Design Supply Air Temperature Difference {deltaC}
  0.0085,                                 !- Zone Cooling Design Supply Air Humidity Ratio {kg-H2O/kg-air}
  0.008,                                  !- Zone Heating Design Supply Air Humidity Ratio {kg-H2O/kg-air}
  ,                                       !- Zone Heating Sizing Factor
  ,                                       !- Zone Cooling Sizing Factor
  DesignDay,                              !- Cooling Design Air Flow Method
  ,                                       !- Cooling Design Air Flow Rate {m3/s}
  ,                                       !- Cooling Minimum Air Flow per Zone Floor Area {m3/s-m2}
  ,                                       !- Cooling Minimum Air Flow {m3/s}
  ,                                       !- Cooling Minimum Air Flow Fraction
  DesignDay,                              !- Heating Design Air Flow Method
  ,                                       !- Heating Design Air Flow Rate {m3/s}
  ,                                       !- Heating Maximum Air Flow per Zone Floor Area {m3/s-m2}
  ,                                       !- Heating Maximum Air Flow {m3/s}
  ,                                       !- Heating Maximum Air Flow Fraction
  No,                                     !- Account for Dedicated Outdoor Air System
  NeutralSupplyAir,                       !- Dedicated Outdoor Air System Control Strategy
  autosize,                               !- Dedicated Outdoor Air Low Setpoint Temperature for Design {C}
  autosize,                               !- Dedicated Outdoor Air High Setpoint Temperature for Design {C}
  Sensible Load Only No Latent Load,      !- Zone Load Sizing Method
  HumidityRatioDifference,                !- Zone Latent Cooling Design Supply Air Humidity Ratio Input Method
  ,                                       !- Zone Dehumidification Design Supply Air Humidity Ratio {kgWater/kgDryAir}
  0.005,                                  !- Zone Cooling Design Supply Air Humidity Ratio Difference {kgWater/kgDryAir}
  HumidityRatioDifference,                !- Zone Latent Heating Design Supply Air Humidity Ratio Input Method
  ,                                       !- Zone Humidification Design Supply Air Humidity Ratio {kgWater/kgDryAir}
  0.005,                                  !- Zone Humidification Design Supply Air Humidity Ratio Difference {kgWater/kgDryAir}
  ,                                       !- Zone Humidistat Dehumidification Set Point Schedule Name
  ,                                       !- Zone Humidistat Humidification Set Point Schedule Name
  ,                                       !- Design Zone Air Distribution Effectiveness in Cooling Mode
  ,                                       !- Design Zone Air Distribution Effectiveness in Heating Mode
  ,                                       !- Design Zone Secondary Recirculation Fraction {dimensionless}
  ,                                       !- Design Minimum Zone Ventilation Efficiency {dimensionless}
  Coincident;                             !- Sizing Option

OS:ZoneHVAC:EquipmentList,
  {f8e4dc69-2ee4-469a-8ae3-0e1dc46e934f}, !- Handle
  Zone HVAC Equipment List 2,             !- Name
  {a891a0e9-ca9a-49d5-8255-8494318e00e4}; !- Thermal Zone

OS:AdditionalProperties,
  {0667d483-6deb-4648-91c0-88ea12e1dffc}, !- Handle
  {a891a0e9-ca9a-49d5-8255-8494318e00e4}, !- Object Name
  ObjectType,                             !- Feature Name 1
  String,                                 !- Feature Data Type 1
  attic - vented;                         !- Feature Value 1

OS:Space,
  {356cd11f-3e17-4fb2-babf-6ba10acee2f7}, !- Handle
  attic - vented 1,                       !- Name
  ,                                       !- Space Type Name
  ,                                       !- Default Construction Set Name
  ,                                       !- Default Schedule Set Name
  ,                                       !- Direction of Relative North {deg}
  ,                                       !- X Origin {m}
  ,                                       !- Y Origin {m}
  ,                                       !- Z Origin {m}
  ,                                       !- Building Story Name
  {a891a0e9-ca9a-49d5-8255-8494318e00e4}, !- Thermal Zone Name
  ,                                       !- Part of Total Floor Area
  ,                                       !- Design Specification Outdoor Air Object Name
  ,                                       !- Building Unit Name
  126.003218814318;                       !- Volume {m3}

OS:Material,
  {1c8f6486-e514-42bd-8b07-2545403618dc}, !- Handle
  asphalt or fiberglass shingles,         !- Name
  Rough,                                  !- Roughness
  0.00635,                                !- Thickness {m}
  0.162714,                               !- Conductivity {W/m-K}
  1121.4,                                 !- Density {kg/m3}
  1465.45,                                !- Specific Heat {J/kg-K}
  0.9,                                    !- Thermal Absorptance
  0.85,                                   !- Solar Absorptance