
OS:Version,
  {e5ab3d2b-808d-4c35-81c3-c6e51ebee3aa}, !- Handle
  3.9.0;                                  !- Version Identifier

OS:SimulationControl,
  {f9190849-6d9b-4378-9170-e0b7605a2e71}, !- Handle
  ,                                       !- Do Zone Sizing Calculation
  ,                                       !- Do System Sizing Calculation
  ,                                       !- Do Plant Sizing Calculation
  No;                                     !- Run Simulation for Sizing Periods

OS:Timestep,
  {5afab2fe-f86c-4c99-b2fa-b0d30ffce50b}, !- Handle
  1;                                      !- Number of Timesteps per Hour

OS:ShadowCalculation,
  {35543f6e-84ca-47aa-b442-5403c8b887de}, !- Handle
  PolygonClipping,                        !- Shading Calculation Method
  ,                                       !- Shading Calculation Update Frequency Method
  20,                                     !- Shading Calculation Update Frequency
  200,                                    !- Maximum Figures in Shadow Overlap Calculations
  ,                                       !- Polygon Clipping Algorithm
  512,                                    !- Pixel Counting Resolution
  ,                                       !- Sky Diffuse Modeling Algorithm
  No,                                     !- Output External Shading Calculation Results
  No,                                     !- Disable Self-Shading Within Shading Zone Groups
  No;                                     !- Disable Self-Shading From Shading Zone Groups to Other Zones

OS:SurfaceConvectionAlgorithm:Outside,
  {3adf39d5-2f74-4611-9f12-ec8a7cce2eb2}, !- Handle
  DOE-2;                                  !- Algorithm

OS:SurfaceConvectionAlgorithm:Inside,
  {d2a34757-ed96-48b6-9f73-94fe53cd462d}, !- Handle
  TARP;                                   !- Algorithm

OS:ZoneCapacitanceMultiplier:ResearchSpecial,
  {bc6445ff-89fe-4263-a372-683a7ed54ad7}, !- Handle
  7,                                      !- Temperature Capacity Multiplier
  15,                                     !- Humidity Capacity Multiplier
  ;                                       !- Carbon Dioxide Capacity Multiplier

OS:ConvergenceLimits,
  {adec153a-7879-450f-95ec-9b0ef2d7b330}, !- Handle
  0;                                      !- Minimum System Timestep {minutes}

OS:RunPeriod,
  {d5a1c43f-17db-4264-a06a-7a623206ef43}, !- Handle
  Run Period 1,                           !- Name
  1,                                      !- Begin Month
  1,                                      !- Begin Day of Month
  12,                                     !- End Month
  31,                                     !- End Day of Month
  ,                                       !- Use Weather File Holidays and Special Days
  ,                                       !- Use Weather File Daylight Saving Period
  ,                                       !- Apply Weekend Holiday Rule
  ,                                       !- Use Weather File Rain Indicators
  ,                                       !- Use Weather File Snow Indicators
  ;                                       !- Number of Times Runperiod to be Repeated

OS:PerformancePrecisionTradeoffs,
  {796148e6-6abb-4e43-ab80-4e77997476ed}, !- Handle
  ,                                       !- Use Coil Direct Solutions
  CarrollMRT;                             !- Zone Radiant Exchange Algorithm

OS:WeatherFile,
  {913d7651-55a7-4293-a441-23acd0fff4d6}, !- Handle
  Buffalo Niagara Intl Ap,                !- City
  NY,                                     !- State Province Region
  USA,                                    !- Country
  TMY3,                                   !- Data Source
  725280,                                 !- WMO Number
  42.93,                                  !- Latitude {deg}
  -78.73,                                 !- Longitude {deg}
  -5,                                     !- Time Zone {hr}
  215,                                    !- Elevation {m}
  /Users/nmoore/github/urbanopt-example-geojson-project/example_project/weather/USA_NY_Buffalo-Greater.Buffalo.Intl.AP.725280_TMY3.epw, !- Url
  6B50E0FF,                               !- Checksum
  ,                                       !- Start Date Actual Year
  Sunday;                                 !- Start Day of Week

OS:YearDescription,
  {be648b72-db9f-476a-8e6f-1b3b11a9ff9e}, !- Handle
  2007,                                   !- Calendar Year
  ,                                       !- Day of Week for Start Day
  ;                                       !- Is Leap Year

OS:Site,
  {04ec62cf-476f-45b3-9d17-b864061b9911}, !- Handle
  Buffalo Niagara Intl Ap_NY,             !- Name
  42.93,                                  !- Latitude {deg}
  -78.73,                                 !- Longitude {deg}
  -5,                                     !- Time Zone {hr}
  215,                                    !- Elevation {m}
  Suburbs,                                !- Terrain
  Yes;                                    !- Keep Site Location Information

OS:RunPeriodControl:DaylightSavingTime,
  {9cb2c994-e278-4d1a-b5f2-20c630abe2c1}, !- Handle
  Mar 12,                                 !- Start Date
  Nov 5;                                  !- End Date

OS:Site:GroundTemperature:Shallow,
  {87c65e8a-cfd9-4d12-a137-097fd953d607}, !- Handle
  4.30207395723828,                       !- January Surface Ground Temperature {C}
  2.29327249652502,                       !- February Surface Ground Temperature {C}
  2.13240047156047,                       !- March Surface Ground Temperature {C}
  3.08567940719286,                       !- April Surface Ground Temperature {C}
  6.91256312497526,                       !- May Surface Ground Temperature {C}
  10.7216195949507,                       !- June Surface Ground Temperature {C}
  14.0238679822574,                       !- July Surface Ground Temperature {C}
  16.1157611184724,                       !- August Surface Ground Temperature {C}
  16.2934789303462,                       !- September Surface Ground Temperature {C}
  14.5920754632847,                       !- October Surface Ground Temperature {C}
  11.374036348653,                        !- November Surface Ground Temperature {C}
  7.68182621661674;                       !- December Surface Ground Temperature {C}

OS:ThermalZone,
  {0ef45765-679b-4c32-97d3-1bf53c7773b1}, !- Handle
  conditioned space,                      !- Name
  1,                                      !- Multiplier
  ,                                       !- Ceiling Height {m}
  475.79381486208,                        !- Volume {m3}
  ,                                       !- Floor Area {m2}
  ,                                       !- Zone Inside Convection Algorithm
  ,                                       !- Zone Outside Convection Algorithm
  ,                                       !- Zone Conditioning Equipment List Name
  {af468627-5943-4662-9bc9-06e302b7242f}, !- Zone Air Inlet Port List
  {43ad33c1-770b-418d-a476-1aabf02f7074}, !- Zone Air Exhaust Port List
  {910373d6-0c9e-4abb-a92b-f5eb6da83c3c}, !- Zone Air Node Name
  {eceed44b-3b68-4bb1-9ba5-98173fe3139a}, !- Zone Return Air Port List
  ,                                       !- Primary Daylighting Control Name
  ,                                       !- Fraction of Zone Controlled by Primary Daylighting Control
  ,                                       !- Secondary Daylighting Control Name
  ,                                       !- Fraction of Zone Controlled by Secondary Daylighting Control
  ,                                       !- Illuminance Map Name
  ,                                       !- Group Rendering Name
  {bc27195b-f8c4-4a28-a3d2-51487717307f}, !- Thermostat Name
  No;                                     !- Use Ideal Air Loads

OS:Node,
  {d1b17f48-7e78-4c4d-8c4a-648c89bc1d6e}, !- Handle
  Node 1,                                 !- Name
  {910373d6-0c9e-4abb-a92b-f5eb6da83c3c}, !- Inlet Port
  ;                                       !- Outlet Port

OS:Connection,
  {910373d6-0c9e-4abb-a92b-f5eb6da83c3c}, !- Handle
  {0ef45765-679b-4c32-97d3-1bf53c7773b1}, !- Source Object
  11,                                     !- Outlet Port
  {d1b17f48-7e78-4c4d-8c4a-648c89bc1d6e}, !- Target Object
  2;                                      !- Inlet Port

OS:PortList,
  {af468627-5943-4662-9bc9-06e302b7242f}, !- Handle
  {0ef45765-679b-4c32-97d3-1bf53c7773b1}, !- HVAC Component
  {7a83eeb8-22b3-4f13-ac50-7de9473a0276}; !- Port 1

OS:PortList,
  {43ad33c1-770b-418d-a476-1aabf02f7074}, !- Handle
  {0ef45765-679b-4c32-97d3-1bf53c7773b1}; !- HVAC Component

OS:PortList,
  {eceed44b-3b68-4bb1-9ba5-98173fe3139a}, !- Handle
  {0ef45765-679b-4c32-97d3-1bf53c7773b1}, !- HVAC Component
  {1fa2052a-459c-4338-8881-1792e5584e22}; !- Port 1

OS:Sizing:Zone,
  {41df5ad2-cb9c-4997-bfe6-b2e3e99c59a3}, !- Handle
  {0ef45765-679b-4c32-97d3-1bf53c7773b1}, !- Zone or ZoneList Name
  SupplyAirTemperature,                   !- Zone Cooling Design Supply Air Temperature Input Method
  14,                                     !- Zone Cooling Design Supply Air Temperature {C}
  11.11,                                  !- Zone Cooling Design Supply Air Temperature Difference {deltaC}
  SupplyAirTemperature,                   !- Zone Heating Design Supply Air Temperature Input Method
  40,                                     !- Zone Heating Design Supply Air Temperature {C}
  11.11,                                  !- Zone Heating Design Supply Air Temperature Difference {deltaC}
  0.0085,                                 !- Zone Cooling Design Supply Air Humidity Ratio {kg-H2O/kg-air}
  0.008,                                  !- Zone Heating Design Supply Air Humidity Ratio {kg-H2O/kg-air}
  ,                                       !- Zone Heating Sizing Factor
  ,                                       !- Zone Cooling Sizing Factor
  DesignDay,                              !- Cooling Design Air Flow Method
  ,                                       !- Cooling Design Air Flow Rate {m3/s}
  ,                                       !- Cooling Minimum Air Flow per Zone Floor Area {m3/s-m2}
  ,                                       !- Cooling Minimum Air Flow {m3/s}
  ,                                       !- Cooling Minimum Air Flow Fraction
  DesignDay,                              !- Heating Design Air Flow Method
  ,                                       !- Heating Design Air Flow Rate {m3/s}
  ,                                       !- Heating Maximum Air Flow per Zone Floor Area {m3/s-m2}
  ,                                       !- Heating Maximum Air Flow {m3/s}
  ,                                       !- Heating Maximum Air Flow Fraction
  No,                                     !- Account for Dedicated Outdoor Air System
  NeutralSupplyAir,                       !- Dedicated Outdoor Air System Control Strategy
  autosize,                               !- Dedicated Outdoor Air Low Setpoint Temperature for Design {C}
  autosize,                               !- Dedicated Outdoor Air High Setpoint Temperature for Design {C}
  Sensible Load Only No Latent Load,      !- Zone Load Sizing Method
  HumidityRatioDifference,                !- Zone Latent Cooling Design Supply Air Humidity Ratio Input Method
  ,                                       !- Zone Dehumidification Design Supply Air Humidity Ratio {kgWater/kgDryAir}
  0.005,                                  !- Zone Cooling Design Supply Air Humidity Ratio Difference {kgWater/kgDryAir}
  HumidityRatioDifference,                !- Zone Latent Heating Design Supply Air Humidity Ratio Input Method
  ,                                       !- Zone Humidification Design Supply Air Humidity Ratio {kgWater/kgDryAir}
  0.005,                                  !- Zone Humidification Design Supply Air Humidity Ratio Difference {kgWater/kgDryAir}
  ,                                       !- Zone Humidistat Dehumidification Set Point Schedule Name
  ,                                       !- Zone Humidistat Humidification Set Point Schedule Name
  ,                                       !- Design Zone Air Distribution Effectiveness in Cooling Mode
  ,                                       !- Design Zone Air Distribution Effectiveness in Heating Mode
  ,                                       !- Design Zone Secondary Recirculation Fraction {dimensionless}
  ,                                       !- Design Minimum Zone Ventilation Efficiency {dimensionless}
  Coincident;                             !- Sizing Option

OS:ZoneHVAC:EquipmentList,
  {a38b84ea-65e3-4216-a0d2-cdd2d918001b}, !- Handle
  Zone HVAC Equipment List 1,             !- Name
  {0ef45765-679b-4c32-97d3-1bf53c7773b1}, !- Thermal Zone
  ,                                       !- Load Distribution Scheme
  {1a4e1bf3-7a04-45b2-b76c-4867eb196662}, !- Zone Equipment 1
  1,                                      !- Zone Equipment Cooling Sequence 1
  1,                                      !- Zone Equipment Heating or No-Load Sequence 1
  {010ef7f2-48f0-4261-aba7-ca28ccce8366}, !- Zone Equipment Sequential Cooling Fraction Schedule Name 1
  {98909282-eaff-4ede-80cf-9ed8a961370f}; !- Zone Equipment Sequential Heating Fraction Schedule Name 1

OS:AdditionalProperties,
  {30e11449-a0fe-4fb2-be87-1b35ba33ce04}, !- Handle
  {0ef45765-679b-4c32-97d3-1bf53c7773b1}, !- Object Name
  ObjectType,                             !- Feature Name 1
  String,                                 !- Feature Data Type 1
  conditioned space;                      !- Feature Value 1

OS:Space,
  {f9736e07-2762-4845-9411-057be52c628a}, !- Handle
  conditioned space 1,                    !- Name
  ,                                       !- Space Type Name
  ,                                       !- Default Construction Set Name
  ,                                       !- Default Schedule Set Name
  ,                                       !- Direction of Relative North {deg}
  ,                                       !- X Origin {m}
  ,                                       !- Y Origin {m}
  ,                                       !- Z Origin {m}
  ,                                       !- Building Story Name
  {0ef45765-679b-4c32-97d3-1bf53c7773b1}, !- Thermal Zone Name
  ,                                       !- Part of Total Floor Area
  ,                                       !- Design Specification Outdoor Air Object Name
  ,                                       !- Building Unit Name
  475.79381486208;                        !- Volume {m3}

OS:Schedule:Ruleset,
  {71f8fea4-f6fd-429d-8c9a-19c5a9452fd8}, !- Handle
  heating setpoint,                       !- Name
  {2bb172a4-f6ef-44e8-812a-0bb6f03bee37}, !- Schedule Type Limits Name
  {5d48db0d-0824-4149-810d-5646831dad5a}; !- Default Day Schedule Name

OS:Schedule:Day,
  {5d48db0d-0824-4149-810d-5646831dad5a}, !- Handle
  heating setpoint default day,           !- Name
  {2bb172a4-f6ef-44e8-812a-0bb6f03bee37}, !- Schedule Type Limits Name
  ,                                       !- Interpolate to Timestep
  24,                                     !- Hour 1
  0,                                      !- Minute 1
  0;                                      !- Value Until Time 1

OS:Schedule:Rule,
  {96244000-ae8b-4dc9-bfd5-f5cbf3d318a3}, !- Handle
  heating setpoint allday rule,           !- Name
  {71f8fea4-f6fd-429d-8c9a-19c5a9452fd8}, !- Schedule Ruleset Name
  0,                                      !- Rule Order
  {e6be4b15-9d86-4d4e-9d3f-b68dcdad816d}, !- Day Schedule Name
  Yes,                                    !- Apply Sunday
  Yes,                                    !- Apply Monday
  Yes,                                    !- Apply Tuesday
  Yes,                                    !- Apply Wednesday
  Yes,                                    !- Apply Thursday
  Yes,                                    !- Apply Friday
  Yes,                                    !- Apply Saturday
  DateRange,                              !- Date Specification Type
  1,                                      !- Start Month
  1,                                      !- Start Day
  12,                                     !- End Month
  31;                                     !- End Day

OS:Schedule:Day,
  {e6be4b15-9d86-4d4e-9d3f-b68dcdad816d}, !- Handle
  heating setpoint day,                   !- Name
  {2bb172a4-f6ef-44e8-812a-0bb6f03bee37}, !- Schedule Type Limits Name
  ,                                       !- Interpolate to Timestep
  24,                                     !- Hour 1
  0,                                      !- Minute 1
  20;                                     !- Value Until Time 1

OS:Schedule:Ruleset,
  {9924e7ac-989b-4230-98a7-ef4c0eebd319}, !- Handle
  cooling setpoint,                       !- Name
  {2bb172a4-f6ef-44e8-812a-0bb6f03bee37}, !- Schedule Type Limits Name
  {aae2e751-98b2-45c0-a728-c7d1ff70c175}; !- Default Day Schedule Name

OS:Schedule:Day,
  {aae2e751-98b2-45c0-a728-c7d1ff70c175}, !- Handle
  cooling setpoint default day,           !- Name
  {2bb172a4-f6ef-44e8-812a-0bb6f03bee37}, !- Schedule Type Limits Name
  ,                                       !- Interpolate to Timestep
  24,                                     !- Hour 1
  0,                                      !- Minute 1
  0;                                      !- Value Until Time 1

OS:Schedule:Rule,
  {6fb47f21-c410-4bb2-8be8-1dfb06b82e2e}, !- Handle
  cooling setpoint allday rule,           !- Name
  {9924e7ac-989b-4230-98a7-ef4c0eebd319}, !- Schedule Ruleset Name
  0,                                      !- Rule Order
  {b4bff446-de46-454a-9d97-c08a795db32e}, !- Day Schedule Name
  Yes,                                    !- Apply Sunday
  Yes,                                    !- Apply Monday
  Yes,                                    !- Apply Tuesday
  Yes,                                    !- Apply Wednesday
  Yes,                                    !- Apply Thursday
  Yes,                                    !- Apply Friday
  Yes,                                    !- Apply Saturday
  DateRange,                              !- Date Specification Type
  1,                                      !- Start Month
  1,                                      !- Start Day
  12,                                     !- End Month
  31;                                     !- End Day

OS:Schedule:Day,
  {b4bff446-de46-454a-9d97-c08a795db32e}, !- Handle
  cooling setpoint day,                   !- Name
  {2bb172a4-f6ef-44e8-812a-0bb6f03bee37}, !- Schedule Type Limits Name
  ,                                       !- Interpolate to Timestep
  24,                                     !- Hour 1
  0,                                      !- Minute 1
  25.5555555555556;                       !- Value Until Time 1

OS:ThermostatSetpoint:DualSetpoint,
  {bc27195b-f8c4-4a28-a3d2-51487717307f}, !- Handle
  conditioned space temperature setpoint, !- Name
  {71f8fea4-f6fd-429d-8c9a-19c5a9452fd8}, !- Heating Setpoint Temperature Schedule Name
  {9924e7ac-989b-4230-98a7-ef4c0eebd319}, !- Cooling Setpoint Temperature Schedule Name
  0;                                      !- Temperature Difference Between Cutout And Setpoint {deltaC}

OS:ScheduleTypeLimits,
  {2bb172a4-f6ef-44e8-812a-0bb6f03bee37}, !- Handle
  Temperature,                            !- Name
  ,                                       !- Lower Limit Value
  ,                                       !- Upper Limit Value
  Continuous,                             !- Numeric Type
  Temperature;                            !- Unit Type

OS:Surface,
  {aede2be8-d0ae-4c42-b890-e4f6ea2e39ba}, !- Handle
  Roof1,                                  !- Name
  RoofCeiling,                            !- Surface Type
  {b6df4732-279b-4501-9716-a834ae2961dc}, !- Construction Name
  {15130413-7263-4c45-92d0-a88970d6d3e9}, !- Space Name
  Outdoors,                               !- Outside Boundary Condition
  ,                                       !- Outside Boundary Condition Object
  SunExposed,                             !- Sun Exposure
  WindExposed,                            !- Wind Exposure
  ,                                       !- View Factor to Ground
  ,                                       !- Number of Vertices
  -25.0448166683368, 35.3267874683368, 2.4384, !- X,Y,Z Vertex 1 {m}
  -25.0448166683368, 27.3603626312596, 6.42161241853859, !- X,Y,Z Vertex 2 {m}
  -16.1380829316632, 27.3603626312596, 6.42161241853859, !- X,Y,Z Vertex 3 {m}
  -16.1380829316632, 35.3267874683368, 2.4384; !- X,Y,Z Vertex 4 {m}

OS:AdditionalProperties,
  {b2f4c35c-6d18-43d4-a417-d10a83cdc334}, !- Handle
  {aede2be8-d0ae-4c42-b890-e4f6ea2e39ba}, !- Object Name
  Length,                                 !- Feature Name 1
  Double,                                 !- Feature Data Type 1
  29.221567377538118,                     !- Feature Value 1
  Width,                                  !- Feature Name 2
  Double,                                 !- Feature Data Type 2
  29.221567377538118,                     !- Feature Value 2
  Azimuth,                                !- Feature Name 3
  Integer,                                !- Feature Data Type 3
  0,                                      !- Feature Value 3
  Tilt,                                   !- Feature Name 4
  Double,                                 !- Feature Data Type 4
  0.5,                                    !- Feature Value 4
  SurfaceType,                            !- Feature Name 5
  String,                                 !- Feature Data Type 5
  Roof;                                   !- Feature Value 5

OS:ThermalZone,
  {8b9b75fc-0008-41b6-957b-61ccc70b1fa5}, !- Handle
  attic - vented,                         !- Name
  1,                                      !- Multiplier
  ,                                       !- Ceiling Height {m}
  126.002877704413,                       !- Volume {m3}
  ,                                       !- Floor Area {m2}
  ,                                       !- Zone Inside Convection Algorithm
  ,                                       !- Zone Outside Convection Algorithm
  ,                                       !- Zone Conditioning Equipment List Name
  {a6ff88f1-5c34-48bd-baf4-309de5d54a67}, !- Zone Air Inlet Port List
  {13c5dd54-cc7b-48bd-a931-c93db2475bf3}, !- Zone Air Exhaust Port List
  {1f0654d2-454d-467e-9b1c-214070aa2153}, !- Zone Air Node Name
  {44787fb4-ac62-4093-9024-d0ac2cfe0ea3}, !- Zone Return Air Port List
  ,                                       !- Primary Daylighting Control Name
  ,                                       !- Fraction of Zone Controlled by Primary Daylighting Control
  ,                                       !- Secondary Daylighting Control Name
  ,                                       !- Fraction of Zone Controlled by Secondary Daylighting Control
  ,                                       !- Illuminance Map Name
  ,                                       !- Group Rendering Name
  ,                                       !- Thermostat Name
  No;                                     !- Use Ideal Air Loads

OS:Node,
  {404b7212-5a20-4936-919d-c1a4271b88a2}, !- Handle
  Node 2,                                 !- Name
  {1f0654d2-454d-467e-9b1c-214070aa2153}, !- Inlet Port
  ;                                       !- Outlet Port

OS:Connection,
  {1f0654d2-454d-467e-9b1c-214070aa2153}, !- Handle
  {8b9b75fc-0008-41b6-957b-61ccc70b1fa5}, !- Source Object
  11,                                     !- Outlet Port
  {404b7212-5a20-4936-919d-c1a4271b88a2}, !- Target Object
  2;                                      !- Inlet Port

OS:PortList,
  {a6ff88f1-5c34-48bd-baf4-309de5d54a67}, !- Handle
  {8b9b75fc-0008-41b6-957b-61ccc70b1fa5}; !- HVAC Component

OS:PortList,
  {13c5dd54-cc7b-48bd-a931-c93db2475bf3}, !- Handle
  {8b9b75fc-0008-41b6-957b-61ccc70b1fa5}; !- HVAC Component

OS:PortList,
  {44787fb4-ac62-4093-9024-d0ac2cfe0ea3}, !- Handle
  {8b9b75fc-0008-41b6-957b-61ccc70b1fa5}; !- HVAC Component

OS:Sizing:Zone,
  {f28a4572-b72b-4171-a4a4-77e4b8d7a74e}, !- Handle
  {8b9b75fc-0008-41b6-957b-61ccc70b1fa5}, !- Zone or ZoneList Name
  SupplyAirTemperature,                   !- Zone Cooling Design Supply Air Temperature Input Method
  14,                                     !- Zone Cooling Design Supply Air Temperature {C}
  11.11,                                  !- Zone Cooling Design Supply Air Temperature Difference {deltaC}
  SupplyAirTemperature,                   !- Zone Heating Design Supply Air Temperature Input Method
  40,                                     !- Zone Heating Design Supply Air Temperature {C}
  11.11,                                  !- Zone Heating Design Supply Air Temperature Difference {deltaC}
  0.0085,                                 !- Zone Cooling Design Supply Air Humidity Ratio {kg-H2O/kg-air}
  0.008,                                  !- Zone Heating Design Supply Air Humidity Ratio {kg-H2O/kg-air}
  ,                                       !- Zone Heating Sizing Factor
  ,                                       !- Zone Cooling Sizing Factor
  DesignDay,                              !- Cooling Design Air Flow Method
  ,                                       !- Cooling Design Air Flow Rate {m3/s}
  ,                                       !- Cooling Minimum Air Flow per Zone Floor Area {m3/s-m2}
  ,                                       !- Cooling Minimum Air Flow {m3/s}
  ,                                       !- Cooling Minimum Air Flow Fraction
  DesignDay,                              !- Heating Design Air Flow Method
  ,                                       !- Heating Design Air Flow Rate {m3/s}
  ,                                       !- Heating Maximum Air Flow per Zone Floor Area {m3/s-m2}
  ,                                       !- Heating Maximum Air Flow {m3/s}
  ,                                       !- Heating Maximum Air Flow Fraction
  No,                                     !- Account for Dedicated Outdoor Air System
  NeutralSupplyAir,                       !- Dedicated Outdoor Air System Control Strategy
  autosize,                               !- Dedicated Outdoor Air Low Setpoint Temperature for Design {C}
  autosize,                               !- Dedicated Outdoor Air High Setpoint Temperature for Design {C}
  Sensible Load Only No Latent Load,      !- Zone Load Sizing Method
  HumidityRatioDifference,                !- Zone Latent Cooling Design Supply Air Humidity Ratio Input Method
  ,                                       !- Zone Dehumidification Design Supply Air Humidity Ratio {kgWater/kgDryAir}
  0.005,                                  !- Zone Cooling Design Supply Air Humidity Ratio Difference {kgWater/kgDryAir}
  HumidityRatioDifference,                !- Zone Latent Heating Design Supply Air Humidity Ratio Input Method
  ,                                       !- Zone Humidification Design Supply Air Humidity Ratio {kgWater/kgDryAir}
  0.005,                                  !- Zone Humidification Design Supply Air Humidity Ratio Difference {kgWater/kgDryAir}
  ,                                       !- Zone Humidistat Dehumidification Set Point Schedule Name
  ,                                       !- Zone Humidistat Humidification Set Point Schedule Name
  ,                                       !- Design Zone Air Distribution Effectiveness in Cooling Mode
  ,                                       !- Design Zone Air Distribution Effectiveness in Heating Mode
  ,                                       !- Design Zone Secondary Recirculation Fraction {dimensionless}
  ,                                       !- Design Minimum Zone Ventilation Efficiency {dimensionless}
  Coincident;                             !- Sizing Option

OS:ZoneHVAC:EquipmentList,
  {981fc7c9-4a7e-49c2-bc48-c1c413bd1845}, !- Handle
  Zone HVAC Equipment List 2,             !- Name
  {8b9b75fc-0008-41b6-957b-61ccc70b1fa5}; !- Thermal Zone

OS:AdditionalProperties,
  {c731d4aa-df64-4bc1-8500-49ede223b576}, !- Handle
  {8b9b75fc-0008-41b6-957b-61ccc70b1fa5}, !- Object Name
  ObjectType,                             !- Feature Name 1
  String,                                 !- Feature Data Type 1
  attic - vented;                         !- Feature Value 1

OS:Space,
  {15130413-7263-4c45-92d0-a88970d6d3e9}, !- Handle
  attic - vented 1,                       !- Name
  ,                                       !- Space Type Name
  ,                                       !- Default Construction Set Name
  ,                                       !- Default Schedule Set Name
  ,                                       !- Direction of Relative North {deg}
  ,                                       !- X Origin {m}
  ,                                       !- Y Origin {m}
  ,                                       !- Z Origin {m}
  ,                                       !- Building Story Name
  {8b9b75fc-0008-41b6-957b-61ccc70b1fa5}, !- Thermal Zone Name
  ,                                       !- Part of Total Floor Area
  ,                                       !- Design Specification Outdoor Air Object Name
  ,                                       !- Building Unit Name
  126.002877704413;                       !- Volume {m3}

OS:Material,
  {570846cf-0bbf-44bb-a8c4-ec1f059e7cdf}, !- Handle
  asphalt or fiberglass shingles,         !- Name
  Rough,                                  !- Roughness
  0.00635,                                !- Thickness {m}
  0.162714,                               !- Conductivity {W/m-K}
  1121.4,                                 !- Density {kg/m3}
  1465.45,                                !- Specific Heat {J/kg-K}
  0.9,                                    !- Thermal Absorptance
  0.85,                                   !- Solar Absorptance