
OS:Version,
  {3aca3bfe-11c1-4ebf-8f03-8bea717124ef}, !- Handle
  3.10.0;                                 !- Version Identifier

OS:SimulationControl,
  {446cf1ec-dbf2-4a9b-92a5-1ed27f3b3486}, !- Handle
  ,                                       !- Do Zone Sizing Calculation
  ,                                       !- Do System Sizing Calculation
  ,                                       !- Do Plant Sizing Calculation
  No;                                     !- Run Simulation for Sizing Periods

OS:Timestep,
  {84aa346a-470e-474f-9329-96d4c64dace6}, !- Handle
  1;                                      !- Number of Timesteps per Hour

OS:ShadowCalculation,
  {e1f805f7-858a-4648-922e-95c23044641a}, !- Handle
  PolygonClipping,                        !- Shading Calculation Method
  ,                                       !- Shading Calculation Update Frequency Method
  20,                                     !- Shading Calculation Update Frequency
  200,                                    !- Maximum Figures in Shadow Overlap Calculations
  ,                                       !- Polygon Clipping Algorithm
  512,                                    !- Pixel Counting Resolution
  ,                                       !- Sky Diffuse Modeling Algorithm
  No,                                     !- Output External Shading Calculation Results
  No,                                     !- Disable Self-Shading Within Shading Zone Groups
  No;                                     !- Disable Self-Shading From Shading Zone Groups to Other Zones

OS:SurfaceConvectionAlgorithm:Outside,
  {0ecb15c6-d1c8-411f-b4bd-fc2c78828dd6}, !- Handle
  DOE-2;                                  !- Algorithm

OS:SurfaceConvectionAlgorithm:Inside,
  {920bfde3-20f2-4b1a-9866-82866db71a1e}, !- Handle
  TARP;                                   !- Algorithm

OS:ZoneCapacitanceMultiplier:ResearchSpecial,
  {1746a28b-3057-4626-8b89-f3e5843b70fd}, !- Handle
  7,                                      !- Temperature Capacity Multiplier
  15,                                     !- Humidity Capacity Multiplier
  ;                                       !- Carbon Dioxide Capacity Multiplier

OS:ConvergenceLimits,
  {02df83a9-2e82-4ea3-be4f-949889171036}, !- Handle
  0;                                      !- Minimum System Timestep {minutes}

OS:RunPeriod,
  {cd63d643-40e6-40a5-92e4-61361ceffd58}, !- Handle
  Run Period 1,                           !- Name
  1,                                      !- Begin Month
  1,                                      !- Begin Day of Month
  12,                                     !- End Month
  31,                                     !- End Day of Month
  ,                                       !- Use Weather File Holidays and Special Days
  ,                                       !- Use Weather File Daylight Saving Period
  ,                                       !- Apply Weekend Holiday Rule
  ,                                       !- Use Weather File Rain Indicators
  ,                                       !- Use Weather File Snow Indicators
  ;                                       !- Number of Times Runperiod to be Repeated

OS:PerformancePrecisionTradeoffs,
  {0bd20244-6aa5-4fae-9919-bfc1e49418f5}, !- Handle
  ,                                       !- Use Coil Direct Solutions
  CarrollMRT;                             !- Zone Radiant Exchange Algorithm

OS:WeatherFile,
  {dc03f0f8-414d-480f-ad4d-e7ee13ffb52f}, !- Handle
  Buffalo Niagara Intl Ap,                !- City
  NY,                                     !- State Province Region
  USA,                                    !- Country
  TMY3,                                   !- Data Source
  725280,                                 !- WMO Number
  42.93,                                  !- Latitude {deg}
  -78.73,                                 !- Longitude {deg}
  -5,                                     !- Time Zone {hr}
  215,                                    !- Elevation {m}
  /Users/nmoore/github/urbanopt-example-geojson-project/example_project/weather/USA_NY_Buffalo-Greater.Buffalo.Intl.AP.725280_TMY3.epw, !- Url
  6B50E0FF,                               !- Checksum
  ,                                       !- Start Date Actual Year
  Sunday;                                 !- Start Day of Week

OS:YearDescription,
  {ac281689-ff95-49bf-a369-035877a49c8a}, !- Handle
  2007,                                   !- Calendar Year
  ,                                       !- Day of Week for Start Day
  ;                                       !- Is Leap Year

OS:Site,
  {4ae0f4fe-1677-4b50-83d3-989711db8bcf}, !- Handle
  Buffalo Niagara Intl Ap_NY,             !- Name
  42.93,                                  !- Latitude {deg}
  -78.73,                                 !- Longitude {deg}
  -5,                                     !- Time Zone {hr}
  215,                                    !- Elevation {m}
  Suburbs,                                !- Terrain
  Yes;                                    !- Keep Site Location Information

OS:RunPeriodControl:DaylightSavingTime,
  {f6fff7da-c1d0-4a2d-9559-24ecf884b139}, !- Handle
  Mar 12,                                 !- Start Date
  Nov 5;                                  !- End Date

OS:Site:GroundTemperature:Shallow,
  {3ad34e56-5992-42c6-a197-0e5038c12351}, !- Handle
  4.30207395723828,                       !- January Surface Ground Temperature {C}
  2.29327249652502,                       !- February Surface Ground Temperature {C}
  2.13240047156047,                       !- March Surface Ground Temperature {C}
  3.08567940719286,                       !- April Surface Ground Temperature {C}
  6.91256312497526,                       !- May Surface Ground Temperature {C}
  10.7216195949507,                       !- June Surface Ground Temperature {C}
  14.0238679822574,                       !- July Surface Ground Temperature {C}
  16.1157611184724,                       !- August Surface Ground Temperature {C}
  16.2934789303462,                       !- September Surface Ground Temperature {C}
  14.5920754632847,                       !- October Surface Ground Temperature {C}
  11.374036348653,                        !- November Surface Ground Temperature {C}
  7.68182621661674;                       !- December Surface Ground Temperature {C}

OS:ThermalZone,
  {4afd277e-a36f-4630-a759-791bd6478ec1}, !- Handle
  conditioned space,                      !- Name
  1,                                      !- Multiplier
  ,                                       !- Ceiling Height {m}
  692.06373070848,                        !- Volume {m3}
  ,                                       !- Floor Area {m2}
  ,                                       !- Zone Inside Convection Algorithm
  ,                                       !- Zone Outside Convection Algorithm
  ,                                       !- Zone Conditioning Equipment List Name
  {ce9b59a7-3117-4bf2-9347-a5fede44db2d}, !- Zone Air Inlet Port List
  {7ed47944-7e76-4e4d-956a-319d4db48d94}, !- Zone Air Exhaust Port List
  {268101c5-5f98-4640-a1b0-6964c2aaf4ff}, !- Zone Air Node Name
  {576ff268-7f40-478b-b907-38f65cd688c5}, !- Zone Return Air Port List
  ,                                       !- Primary Daylighting Control Name
  ,                                       !- Fraction of Zone Controlled by Primary Daylighting Control
  ,                                       !- Secondary Daylighting Control Name
  ,                                       !- Fraction of Zone Controlled by Secondary Daylighting Control
  ,                                       !- Illuminance Map Name
  ,                                       !- Group Rendering Name
  {4552141c-e592-456f-866f-5bb8fa6da754}, !- Thermostat Name
  No;                                     !- Use Ideal Air Loads

OS:Node,
  {e456a2ee-edab-4a5f-87e3-631a387c3cb6}, !- Handle
  Node 1,                                 !- Name
  {268101c5-5f98-4640-a1b0-6964c2aaf4ff}, !- Inlet Port
  ;                                       !- Outlet Port

OS:Connection,
  {268101c5-5f98-4640-a1b0-6964c2aaf4ff}, !- Handle
  {4afd277e-a36f-4630-a759-791bd6478ec1}, !- Source Object
  11,                                     !- Outlet Port
  {e456a2ee-edab-4a5f-87e3-631a387c3cb6}, !- Target Object
  2;                                      !- Inlet Port

OS:PortList,
  {ce9b59a7-3117-4bf2-9347-a5fede44db2d}, !- Handle
  {4afd277e-a36f-4630-a759-791bd6478ec1}, !- HVAC Component
  {74555380-8644-4a58-bd9f-5c0433ecf2e3}; !- Port 1

OS:PortList,
  {7ed47944-7e76-4e4d-956a-319d4db48d94}, !- Handle
  {4afd277e-a36f-4630-a759-791bd6478ec1}; !- HVAC Component

OS:PortList,
  {576ff268-7f40-478b-b907-38f65cd688c5}, !- Handle
  {4afd277e-a36f-4630-a759-791bd6478ec1}, !- HVAC Component
  {d63866b2-7958-45e6-9d73-2eafce0a1dcf}; !- Port 1

OS:Sizing:Zone,
  {13975f16-cbd6-43ff-97e9-c1f590ccc653}, !- Handle
  {4afd277e-a36f-4630-a759-791bd6478ec1}, !- Zone or ZoneList Name
  SupplyAirTemperature,                   !- Zone Cooling Design Supply Air Temperature Input Method
  14,                                     !- Zone Cooling Design Supply Air Temperature {C}
  11.11,                                  !- Zone Cooling Design Supply Air Temperature Difference {deltaC}
  SupplyAirTemperature,                   !- Zone Heating Design Supply Air Temperature Input Method
  40,                                     !- Zone Heating Design Supply Air Temperature {C}
  11.11,                                  !- Zone Heating Design Supply Air Temperature Difference {deltaC}
  0.0085,                                 !- Zone Cooling Design Supply Air Humidity Ratio {kg-H2O/kg-air}
  0.008,                                  !- Zone Heating Design Supply Air Humidity Ratio {kg-H2O/kg-air}
  ,                                       !- Zone Heating Sizing Factor
  ,                                       !- Zone Cooling Sizing Factor
  DesignDay,                              !- Cooling Design Air Flow Method
  ,                                       !- Cooling Design Air Flow Rate {m3/s}
  ,                                       !- Cooling Minimum Air Flow per Zone Floor Area {m3/s-m2}
  ,                                       !- Cooling Minimum Air Flow {m3/s}
  ,                                       !- Cooling Minimum Air Flow Fraction
  DesignDay,                              !- Heating Design Air Flow Method
  ,                                       !- Heating Design Air Flow Rate {m3/s}
  ,                                       !- Heating Maximum Air Flow per Zone Floor Area {m3/s-m2}
  ,                                       !- Heating Maximum Air Flow {m3/s}
  ,                                       !- Heating Maximum Air Flow Fraction
  No,                                     !- Account for Dedicated Outdoor Air System
  NeutralSupplyAir,                       !- Dedicated Outdoor Air System Control Strategy
  autosize,                               !- Dedicated Outdoor Air Low Setpoint Temperature for Design {C}
  autosize,                               !- Dedicated Outdoor Air High Setpoint Temperature for Design {C}
  Sensible Load Only No Latent Load,      !- Zone Load Sizing Method
  HumidityRatioDifference,                !- Zone Latent Cooling Design Supply Air Humidity Ratio Input Method
  ,                                       !- Zone Dehumidification Design Supply Air Humidity Ratio {kgWater/kgDryAir}
  0.005,                                  !- Zone Cooling Design Supply Air Humidity Ratio Difference {kgWater/kgDryAir}
  HumidityRatioDifference,                !- Zone Latent Heating Design Supply Air Humidity Ratio Input Method
  ,                                       !- Zone Humidification Design Supply Air Humidity Ratio {kgWater/kgDryAir}
  0.005,                                  !- Zone Humidification Design Supply Air Humidity Ratio Difference {kgWater/kgDryAir}
  ,                                       !- Zone Humidistat Dehumidification Set Point Schedule Name
  ,                                       !- Zone Humidistat Humidification Set Point Schedule Name
  ,                                       !- Design Zone Air Distribution Effectiveness in Cooling Mode
  ,                                       !- Design Zone Air Distribution Effectiveness in Heating Mode
  ,                                       !- Design Zone Secondary Recirculation Fraction {dimensionless}
  ,                                       !- Design Minimum Zone Ventilation Efficiency {dimensionless}
  Coincident;                             !- Sizing Option

OS:ZoneHVAC:EquipmentList,
  {85efad42-330a-4a26-b9c4-8b41446d6522}, !- Handle
  Zone HVAC Equipment List 1,             !- Name
  {4afd277e-a36f-4630-a759-791bd6478ec1}, !- Thermal Zone
  ,                                       !- Load Distribution Scheme
  {ed7e64ec-aeab-4b10-ac05-b0717a64c659}, !- Zone Equipment 1
  1,                                      !- Zone Equipment Cooling Sequence 1
  1,                                      !- Zone Equipment Heating or No-Load Sequence 1
  {a51f5729-707f-4671-bed7-b57f49468e16}, !- Zone Equipment Sequential Cooling Fraction Schedule Name 1
  {d9f6aede-616f-4246-affa-844042e0d8b6}; !- Zone Equipment Sequential Heating Fraction Schedule Name 1

OS:AdditionalProperties,
  {00aada92-35c9-4d29-bae8-0d97cb1bcc55}, !- Handle
  {4afd277e-a36f-4630-a759-791bd6478ec1}, !- Object Name
  ObjectType,                             !- Feature Name 1
  String,                                 !- Feature Data Type 1
  conditioned space;                      !- Feature Value 1

OS:Space,
  {52d854e1-3dcd-4d31-8912-8a770d9c389c}, !- Handle
  conditioned space 1,                    !- Name
  ,                                       !- Space Type Name
  ,                                       !- Default Construction Set Name
  ,                                       !- Default Schedule Set Name
  ,                                       !- Direction of Relative North {deg}
  ,                                       !- X Origin {m}
  ,                                       !- Y Origin {m}
  ,                                       !- Z Origin {m}
  ,                                       !- Building Story Name
  {4afd277e-a36f-4630-a759-791bd6478ec1}, !- Thermal Zone Name
  ,                                       !- Part of Total Floor Area
  ,                                       !- Design Specification Outdoor Air Object Name
  ,                                       !- Building Unit Name
  692.06373070848;                        !- Volume {m3}

OS:Schedule:Ruleset,
  {dde2ad94-6e8c-4267-b61c-e585ce38c7fb}, !- Handle
  heating setpoint,                       !- Name
  {85a0f396-1ad8-4e61-a1c9-cdc34f80a179}, !- Schedule Type Limits Name
  {71218d71-b946-41c8-bdbc-ca533c56c1f7}; !- Default Day Schedule Name

OS:Schedule:Day,
  {71218d71-b946-41c8-bdbc-ca533c56c1f7}, !- Handle
  heating setpoint default day,           !- Name
  {85a0f396-1ad8-4e61-a1c9-cdc34f80a179}, !- Schedule Type Limits Name
  ,                                       !- Interpolate to Timestep
  24,                                     !- Hour 1
  0,                                      !- Minute 1
  0;                                      !- Value Until Time 1

OS:Schedule:Rule,
  {1bedd05a-ef18-4646-a8b4-0d6fd6222c56}, !- Handle
  heating setpoint allday rule,           !- Name
  {dde2ad94-6e8c-4267-b61c-e585ce38c7fb}, !- Schedule Ruleset Name
  0,                                      !- Rule Order
  {724a8405-2d7c-42d2-af92-fe949d23e602}, !- Day Schedule Name
  Yes,                                    !- Apply Sunday
  Yes,                                    !- Apply Monday
  Yes,                                    !- Apply Tuesday
  Yes,                                    !- Apply Wednesday
  Yes,                                    !- Apply Thursday
  Yes,                                    !- Apply Friday
  Yes,                                    !- Apply Saturday
  DateRange,                              !- Date Specification Type
  1,                                      !- Start Month
  1,                                      !- Start Day
  12,                                     !- End Month
  31;                                     !- End Day

OS:Schedule:Day,
  {724a8405-2d7c-42d2-af92-fe949d23e602}, !- Handle
  heating setpoint day,                   !- Name
  {85a0f396-1ad8-4e61-a1c9-cdc34f80a179}, !- Schedule Type Limits Name
  ,                                       !- Interpolate to Timestep
  24,                                     !- Hour 1
  0,                                      !- Minute 1
  20;                                     !- Value Until Time 1

OS:Schedule:Ruleset,
  {e791f46a-a187-4771-a9f4-b21e6e246240}, !- Handle
  cooling setpoint,                       !- Name
  {85a0f396-1ad8-4e61-a1c9-cdc34f80a179}, !- Schedule Type Limits Name
  {8e751f63-6201-415f-b250-661a4b9325d0}; !- Default Day Schedule Name

OS:Schedule:Day,
  {8e751f63-6201-415f-b250-661a4b9325d0}, !- Handle
  cooling setpoint default day,           !- Name
  {85a0f396-1ad8-4e61-a1c9-cdc34f80a179}, !- Schedule Type Limits Name
  ,                                       !- Interpolate to Timestep
  24,                                     !- Hour 1
  0,                                      !- Minute 1
  0;                                      !- Value Until Time 1

OS:Schedule:Rule,
  {6045b313-365c-4681-ac4a-cb18901bac2e}, !- Handle
  cooling setpoint allday rule,           !- Name
  {e791f46a-a187-4771-a9f4-b21e6e246240}, !- Schedule Ruleset Name
  0,                                      !- Rule Order
  {8ddb0c25-3f4c-4168-9840-36d88c740932}, !- Day Schedule Name
  Yes,                                    !- Apply Sunday
  Yes,                                    !- Apply Monday
  Yes,                                    !- Apply Tuesday
  Yes,                                    !- Apply Wednesday
  Yes,                                    !- Apply Thursday
  Yes,                                    !- Apply Friday
  Yes,                                    !- Apply Saturday
  DateRange,                              !- Date Specification Type
  1,                                      !- Start Month
  1,                                      !- Start Day
  12,                                     !- End Month
  31;                                     !- End Day

OS:Schedule:Day,
  {8ddb0c25-3f4c-4168-9840-36d88c740932}, !- Handle
  cooling setpoint day,                   !- Name
  {85a0f396-1ad8-4e61-a1c9-cdc34f80a179}, !- Schedule Type Limits Name
  ,                                       !- Interpolate to Timestep
  24,                                     !- Hour 1
  0,                                      !- Minute 1
  25.5555555555556;                       !- Value Until Time 1

OS:ThermostatSetpoint:DualSetpoint,
  {4552141c-e592-456f-866f-5bb8fa6da754}, !- Handle
  conditioned space temperature setpoint, !- Name
  {dde2ad94-6e8c-4267-b61c-e585ce38c7fb}, !- Heating Setpoint Temperature Schedule Name
  {e791f46a-a187-4771-a9f4-b21e6e246240}, !- Cooling Setpoint Temperature Schedule Name
  0;                                      !- Temperature Difference Between Cutout And Setpoint {deltaC}

OS:ScheduleTypeLimits,
  {85a0f396-1ad8-4e61-a1c9-cdc34f80a179}, !- Handle
  Temperature,                            !- Name
  ,                                       !- Lower Limit Value
  ,                                       !- Upper Limit Value
  Continuous,                             !- Numeric Type
  Temperature;                            !- Unit Type

OS:Surface,
  {b7c34aa8-a6f7-45c8-bf2c-1e5f42a1efe8}, !- Handle
  Roof1,                                  !- Name
  RoofCeiling,                            !- Surface Type
  {5e542876-869e-47e1-a805-7e103a2007f6}, !- Construction Name
  {b4b989a4-b50e-4010-80e3-d396a8617db4}, !- Space Name
  Outdoors,                               !- Outside Boundary Condition
  ,                                       !- Outside Boundary Condition Object
  SunExposed,                             !- Sun Exposure
  WindExposed,                            !- Wind Exposure
  ,                                       !- View Factor to Ground
  ,                                       !- Number of Vertices
  9.8030170292795, 22.3990406761293, 3.048, !- X,Y,Z Vertex 1 {m}
  9.8030170292795, 11.1328146279089, 8.6811130241102, !- X,Y,Z Vertex 2 {m}
  22.3990406761293, 11.1328146279089, 8.6811130241102, !- X,Y,Z Vertex 3 {m}
  22.3990406761293, 22.3990406761293, 3.048; !- X,Y,Z Vertex 4 {m}

OS:AdditionalProperties,
  {866e31bb-96fa-42e5-8817-92a13b7a57a5}, !- Handle
  {b7c34aa8-a6f7-45c8-bf2c-1e5f42a1efe8}, !- Object Name
  Length,                                 !- Feature Name 1
  Double,                                 !- Feature Data Type 1
  41.325536899113608,                     !- Feature Value 1
  Width,                                  !- Feature Name 2
  Double,                                 !- Feature Data Type 2
  41.325536899113601,                     !- Feature Value 2
  Azimuth,                                !- Feature Name 3
  Integer,                                !- Feature Data Type 3
  0,                                      !- Feature Value 3
  Tilt,                                   !- Feature Name 4
  Double,                                 !- Feature Data Type 4
  0.5,                                    !- Feature Value 4
  SurfaceType,                            !- Feature Name 5
  String,                                 !- Feature Data Type 5
  Roof;                                   !- Feature Value 5

OS:ThermalZone,
  {69224490-a698-452e-85a1-b761b4eaca20}, !- Handle
  attic - vented,                         !- Name
  1,                                      !- Multiplier
  ,                                       !- Ceiling Height {m}
  356.390921899745,                       !- Volume {m3}
  ,                                       !- Floor Area {m2}
  ,                                       !- Zone Inside Convection Algorithm
  ,                                       !- Zone Outside Convection Algorithm
  ,                                       !- Zone Conditioning Equipment List Name
  {acc59a1d-88bb-4723-bb1c-adb98fe34ef4}, !- Zone Air Inlet Port List
  {05f965b6-327b-4130-8347-df39322ba783}, !- Zone Air Exhaust Port List
  {a0a8b11e-7b4d-4c50-b972-90a545b4eb88}, !- Zone Air Node Name
  {3cc93bf8-1a39-456b-a7b5-29864ba15114}, !- Zone Return Air Port List
  ,                                       !- Primary Daylighting Control Name
  ,                                       !- Fraction of Zone Controlled by Primary Daylighting Control
  ,                                       !- Secondary Daylighting Control Name
  ,                                       !- Fraction of Zone Controlled by Secondary Daylighting Control
  ,                                       !- Illuminance Map Name
  ,                                       !- Group Rendering Name
  ,                                       !- Thermostat Name
  No;                                     !- Use Ideal Air Loads

OS:Node,
  {1f4ae8f3-6aee-4888-991f-f7472130875a}, !- Handle
  Node 2,                                 !- Name
  {a0a8b11e-7b4d-4c50-b972-90a545b4eb88}, !- Inlet Port
  ;                                       !- Outlet Port

OS:Connection,
  {a0a8b11e-7b4d-4c50-b972-90a545b4eb88}, !- Handle
  {69224490-a698-452e-85a1-b761b4eaca20}, !- Source Object
  11,                                     !- Outlet Port
  {1f4ae8f3-6aee-4888-991f-f7472130875a}, !- Target Object
  2;                                      !- Inlet Port

OS:PortList,
  {acc59a1d-88bb-4723-bb1c-adb98fe34ef4}, !- Handle
  {69224490-a698-452e-85a1-b761b4eaca20}; !- HVAC Component

OS:PortList,
  {05f965b6-327b-4130-8347-df39322ba783}, !- Handle
  {69224490-a698-452e-85a1-b761b4eaca20}; !- HVAC Component

OS:PortList,
  {3cc93bf8-1a39-456b-a7b5-29864ba15114}, !- Handle
  {69224490-a698-452e-85a1-b761b4eaca20}; !- HVAC Component

OS:Sizing:Zone,
  {e2897957-3f69-4135-b8e3-9e7c843e41e7}, !- Handle
  {69224490-a698-452e-85a1-b761b4eaca20}, !- Zone or ZoneList Name
  SupplyAirTemperature,                   !- Zone Cooling Design Supply Air Temperature Input Method
  14,                                     !- Zone Cooling Design Supply Air Temperature {C}
  11.11,                                  !- Zone Cooling Design Supply Air Temperature Difference {deltaC}
  SupplyAirTemperature,                   !- Zone Heating Design Supply Air Temperature Input Method
  40,                                     !- Zone Heating Design Supply Air Temperature {C}
  11.11,                                  !- Zone Heating Design Supply Air Temperature Difference {deltaC}
  0.0085,                                 !- Zone Cooling Design Supply Air Humidity Ratio {kg-H2O/kg-air}
  0.008,                                  !- Zone Heating Design Supply Air Humidity Ratio {kg-H2O/kg-air}
  ,                                       !- Zone Heating Sizing Factor
  ,                                       !- Zone Cooling Sizing Factor
  DesignDay,                              !- Cooling Design Air Flow Method
  ,                                       !- Cooling Design Air Flow Rate {m3/s}
  ,                                       !- Cooling Minimum Air Flow per Zone Floor Area {m3/s-m2}
  ,                                       !- Cooling Minimum Air Flow {m3/s}
  ,                                       !- Cooling Minimum Air Flow Fraction
  DesignDay,                              !- Heating Design Air Flow Method
  ,                                       !- Heating Design Air Flow Rate {m3/s}
  ,                                       !- Heating Maximum Air Flow per Zone Floor Area {m3/s-m2}
  ,                                       !- Heating Maximum Air Flow {m3/s}
  ,                                       !- Heating Maximum Air Flow Fraction
  No,                                     !- Account for Dedicated Outdoor Air System
  NeutralSupplyAir,                       !- Dedicated Outdoor Air System Control Strategy
  autosize,                               !- Dedicated Outdoor Air Low Setpoint Temperature for Design {C}
  autosize,                               !- Dedicated Outdoor Air High Setpoint Temperature for Design {C}
  Sensible Load Only No Latent Load,      !- Zone Load Sizing Method
  HumidityRatioDifference,                !- Zone Latent Cooling Design Supply Air Humidity Ratio Input Method
  ,                                       !- Zone Dehumidification Design Supply Air Humidity Ratio {kgWater/kgDryAir}
  0.005,                                  !- Zone Cooling Design Supply Air Humidity Ratio Difference {kgWater/kgDryAir}
  HumidityRatioDifference,                !- Zone Latent Heating Design Supply Air Humidity Ratio Input Method
  ,                                       !- Zone Humidification Design Supply Air Humidity Ratio {kgWater/kgDryAir}
  0.005,                                  !- Zone Humidification Design Supply Air Humidity Ratio Difference {kgWater/kgDryAir}
  ,                                       !- Zone Humidistat Dehumidification Set Point Schedule Name
  ,                                       !- Zone Humidistat Humidification Set Point Schedule Name
  ,                                       !- Design Zone Air Distribution Effectiveness in Cooling Mode
  ,                                       !- Design Zone Air Distribution Effectiveness in Heating Mode
  ,                                       !- Design Zone Secondary Recirculation Fraction {dimensionless}
  ,                                       !- Design Minimum Zone Ventilation Efficiency {dimensionless}
  Coincident;                             !- Sizing Option

OS:ZoneHVAC:EquipmentList,
  {b222cf30-8a14-4f93-b4a2-f39c7cf1c07e}, !- Handle
  Zone HVAC Equipment List 2,             !- Name
  {69224490-a698-452e-85a1-b761b4eaca20}; !- Thermal Zone

OS:AdditionalProperties,
  {09a1220d-f4c9-47ed-a553-9ac611865a9f}, !- Handle
  {69224490-a698-452e-85a1-b761b4eaca20}, !- Object Name
  ObjectType,                             !- Feature Name 1
  String,                                 !- Feature Data Type 1
  attic - vented;                         !- Feature Value 1

OS:Space,
  {b4b989a4-b50e-4010-80e3-d396a8617db4}, !- Handle
  attic - vented 1,                       !- Name
  ,                                       !- Space Type Name
  ,                                       !- Default Construction Set Name
  ,                                       !- Default Schedule Set Name
  ,                                       !- Direction of Relative North {deg}
  ,                                       !- X Origin {m}
  ,                                       !- Y Origin {m}
  ,                                       !- Z Origin {m}
  ,                                       !- Building Story Name
  {69224490-a698-452e-85a1-b761b4eaca20}, !- Thermal Zone Name
  ,                                       !- Part of Total Floor Area
  ,                                       !- Design Specification Outdoor Air Object Name
  ,                                       !- Building Unit Name
  356.390921899745;                       !- Volume {m3}

OS:Material,
  {75e35255-14af-4f39-9941-3baf44b8f65f}, !- Handle
  asphalt or fiberglass shingles,         !- Name
  Rough,                                  !- Roughness
  0.00635,                                !- Thickness {m}
  0.162714,                               !- Conductivity {W/m-K}
  1121.4,                                 !- Density {kg/m3}
  1465.45,                                !- Specific Heat {J/kg-K}
  0.9,                                    !- Thermal Absorptance
  0.85,                                   !- Solar Absorptance