
OS:Version,
  {179b3f5a-76d9-4a1e-83a1-0fdd3f3029d1}, !- Handle
  3.9.0;                                  !- Version Identifier

OS:SimulationControl,
  {b476423e-73d0-4081-91ad-fafbeec544df}, !- Handle
  ,                                       !- Do Zone Sizing Calculation
  ,                                       !- Do System Sizing Calculation
  ,                                       !- Do Plant Sizing Calculation
  No;                                     !- Run Simulation for Sizing Periods

OS:Timestep,
  {46cffeb4-ec84-4b03-b459-9f89d25ba8f8}, !- Handle
  1;                                      !- Number of Timesteps per Hour

OS:ShadowCalculation,
  {24df36df-f3f7-42ec-82c0-2669da112092}, !- Handle
  PolygonClipping,                        !- Shading Calculation Method
  ,                                       !- Shading Calculation Update Frequency Method
  20,                                     !- Shading Calculation Update Frequency
  200,                                    !- Maximum Figures in Shadow Overlap Calculations
  ,                                       !- Polygon Clipping Algorithm
  512,                                    !- Pixel Counting Resolution
  ,                                       !- Sky Diffuse Modeling Algorithm
  No,                                     !- Output External Shading Calculation Results
  No,                                     !- Disable Self-Shading Within Shading Zone Groups
  No;                                     !- Disable Self-Shading From Shading Zone Groups to Other Zones

OS:SurfaceConvectionAlgorithm:Outside,
  {914958db-866e-40e7-91ae-48d7b6ee0525}, !- Handle
  DOE-2;                                  !- Algorithm

OS:SurfaceConvectionAlgorithm:Inside,
  {0a5c5aba-b002-4c3c-897a-a8d017823a82}, !- Handle
  TARP;                                   !- Algorithm

OS:ZoneCapacitanceMultiplier:ResearchSpecial,
  {7914e5e1-3c21-4b4e-9a56-291afb09b691}, !- Handle
  7,                                      !- Temperature Capacity Multiplier
  15,                                     !- Humidity Capacity Multiplier
  ;                                       !- Carbon Dioxide Capacity Multiplier

OS:ConvergenceLimits,
  {df0b4748-1730-40aa-97c5-7b0e591d6c44}, !- Handle
  0;                                      !- Minimum System Timestep {minutes}

OS:RunPeriod,
  {b7df2b94-37ea-4d2d-b17b-aa57c473f8e6}, !- Handle
  Run Period 1,                           !- Name
  1,                                      !- Begin Month
  1,                                      !- Begin Day of Month
  12,                                     !- End Month
  31,                                     !- End Day of Month
  ,                                       !- Use Weather File Holidays and Special Days
  ,                                       !- Use Weather File Daylight Saving Period
  ,                                       !- Apply Weekend Holiday Rule
  ,                                       !- Use Weather File Rain Indicators
  ,                                       !- Use Weather File Snow Indicators
  ;                                       !- Number of Times Runperiod to be Repeated

OS:PerformancePrecisionTradeoffs,
  {4eef6ec1-e559-4766-b263-d0c6d80ebaee}, !- Handle
  ,                                       !- Use Coil Direct Solutions
  CarrollMRT;                             !- Zone Radiant Exchange Algorithm

OS:WeatherFile,
  {dc003141-c416-4f7e-ad7b-d0c964030932}, !- Handle
  Buffalo Niagara Intl Ap,                !- City
  NY,                                     !- State Province Region
  USA,                                    !- Country
  TMY3,                                   !- Data Source
  725280,                                 !- WMO Number
  42.93,                                  !- Latitude {deg}
  -78.73,                                 !- Longitude {deg}
  -5,                                     !- Time Zone {hr}
  215,                                    !- Elevation {m}
  /Users/nmoore/github/urbanopt-example-geojson-project/example_project/weather/USA_NY_Buffalo-Greater.Buffalo.Intl.AP.725280_TMY3.epw, !- Url
  6B50E0FF,                               !- Checksum
  ,                                       !- Start Date Actual Year
  Sunday;                                 !- Start Day of Week

OS:YearDescription,
  {ad6fc70d-92fc-4b24-a431-113ebc6b7c18}, !- Handle
  2007,                                   !- Calendar Year
  ,                                       !- Day of Week for Start Day
  ;                                       !- Is Leap Year

OS:Site,
  {1231f87a-dfd5-4263-80f2-784a0dc330e4}, !- Handle
  Buffalo Niagara Intl Ap_NY,             !- Name
  42.93,                                  !- Latitude {deg}
  -78.73,                                 !- Longitude {deg}
  -5,                                     !- Time Zone {hr}
  215,                                    !- Elevation {m}
  Suburbs,                                !- Terrain
  Yes;                                    !- Keep Site Location Information

OS:RunPeriodControl:DaylightSavingTime,
  {71049003-b16e-440c-ae6c-eca760da99de}, !- Handle
  Mar 12,                                 !- Start Date
  Nov 5;                                  !- End Date

OS:Site:GroundTemperature:Shallow,
  {3f0ac971-b030-4bcf-9648-7879d3644cd0}, !- Handle
  4.30207395723828,                       !- January Surface Ground Temperature {C}
  2.29327249652502,                       !- February Surface Ground Temperature {C}
  2.13240047156047,                       !- March Surface Ground Temperature {C}
  3.08567940719286,                       !- April Surface Ground Temperature {C}
  6.91256312497526,                       !- May Surface Ground Temperature {C}
  10.7216195949507,                       !- June Surface Ground Temperature {C}
  14.0238679822574,                       !- July Surface Ground Temperature {C}
  16.1157611184724,                       !- August Surface Ground Temperature {C}
  16.2934789303462,                       !- September Surface Ground Temperature {C}
  14.5920754632847,                       !- October Surface Ground Temperature {C}
  11.374036348653,                        !- November Surface Ground Temperature {C}
  7.68182621661674;                       !- December Surface Ground Temperature {C}

OS:ThermalZone,
  {2b7b1552-3371-471d-a51c-645245196fcc}, !- Handle
  conditioned space,                      !- Name
  1,                                      !- Multiplier
  ,                                       !- Ceiling Height {m}
  692.06373070848,                        !- Volume {m3}
  ,                                       !- Floor Area {m2}
  ,                                       !- Zone Inside Convection Algorithm
  ,                                       !- Zone Outside Convection Algorithm
  ,                                       !- Zone Conditioning Equipment List Name
  {20c79c83-7ae6-4488-8e12-653feb792cbf}, !- Zone Air Inlet Port List
  {d14300f2-6dda-4813-9269-b4b985ac4bff}, !- Zone Air Exhaust Port List
  {b4c66f7b-3582-4ec9-ba92-271724e01b4a}, !- Zone Air Node Name
  {b1f4b4a8-3a1b-4213-850d-37b71a456f58}, !- Zone Return Air Port List
  ,                                       !- Primary Daylighting Control Name
  ,                                       !- Fraction of Zone Controlled by Primary Daylighting Control
  ,                                       !- Secondary Daylighting Control Name
  ,                                       !- Fraction of Zone Controlled by Secondary Daylighting Control
  ,                                       !- Illuminance Map Name
  ,                                       !- Group Rendering Name
  {5e8b155c-23a6-499f-857a-fd5f1b0c8e10}, !- Thermostat Name
  No;                                     !- Use Ideal Air Loads

OS:Node,
  {4295942c-7755-4191-9fe6-c6653f509380}, !- Handle
  Node 1,                                 !- Name
  {b4c66f7b-3582-4ec9-ba92-271724e01b4a}, !- Inlet Port
  ;                                       !- Outlet Port

OS:Connection,
  {b4c66f7b-3582-4ec9-ba92-271724e01b4a}, !- Handle
  {2b7b1552-3371-471d-a51c-645245196fcc}, !- Source Object
  11,                                     !- Outlet Port
  {4295942c-7755-4191-9fe6-c6653f509380}, !- Target Object
  2;                                      !- Inlet Port

OS:PortList,
  {20c79c83-7ae6-4488-8e12-653feb792cbf}, !- Handle
  {2b7b1552-3371-471d-a51c-645245196fcc}, !- HVAC Component
  {a3d10559-affb-40ed-8e8b-1255a04bf57d}; !- Port 1

OS:PortList,
  {d14300f2-6dda-4813-9269-b4b985ac4bff}, !- Handle
  {2b7b1552-3371-471d-a51c-645245196fcc}; !- HVAC Component

OS:PortList,
  {b1f4b4a8-3a1b-4213-850d-37b71a456f58}, !- Handle
  {2b7b1552-3371-471d-a51c-645245196fcc}, !- HVAC Component
  {652c37b6-ad4f-48b3-a616-4bce58aa5517}; !- Port 1

OS:Sizing:Zone,
  {aeb27e55-0a35-4712-9336-99e34c813368}, !- Handle
  {2b7b1552-3371-471d-a51c-645245196fcc}, !- Zone or ZoneList Name
  SupplyAirTemperature,                   !- Zone Cooling Design Supply Air Temperature Input Method
  14,                                     !- Zone Cooling Design Supply Air Temperature {C}
  11.11,                                  !- Zone Cooling Design Supply Air Temperature Difference {deltaC}
  SupplyAirTemperature,                   !- Zone Heating Design Supply Air Temperature Input Method
  40,                                     !- Zone Heating Design Supply Air Temperature {C}
  11.11,                                  !- Zone Heating Design Supply Air Temperature Difference {deltaC}
  0.0085,                                 !- Zone Cooling Design Supply Air Humidity Ratio {kg-H2O/kg-air}
  0.008,                                  !- Zone Heating Design Supply Air Humidity Ratio {kg-H2O/kg-air}
  ,                                       !- Zone Heating Sizing Factor
  ,                                       !- Zone Cooling Sizing Factor
  DesignDay,                              !- Cooling Design Air Flow Method
  ,                                       !- Cooling Design Air Flow Rate {m3/s}
  ,                                       !- Cooling Minimum Air Flow per Zone Floor Area {m3/s-m2}
  ,                                       !- Cooling Minimum Air Flow {m3/s}
  ,                                       !- Cooling Minimum Air Flow Fraction
  DesignDay,                              !- Heating Design Air Flow Method
  ,                                       !- Heating Design Air Flow Rate {m3/s}
  ,                                       !- Heating Maximum Air Flow per Zone Floor Area {m3/s-m2}
  ,                                       !- Heating Maximum Air Flow {m3/s}
  ,                                       !- Heating Maximum Air Flow Fraction
  No,                                     !- Account for Dedicated Outdoor Air System
  NeutralSupplyAir,                       !- Dedicated Outdoor Air System Control Strategy
  autosize,                               !- Dedicated Outdoor Air Low Setpoint Temperature for Design {C}
  autosize,                               !- Dedicated Outdoor Air High Setpoint Temperature for Design {C}
  Sensible Load Only No Latent Load,      !- Zone Load Sizing Method
  HumidityRatioDifference,                !- Zone Latent Cooling Design Supply Air Humidity Ratio Input Method
  ,                                       !- Zone Dehumidification Design Supply Air Humidity Ratio {kgWater/kgDryAir}
  0.005,                                  !- Zone Cooling Design Supply Air Humidity Ratio Difference {kgWater/kgDryAir}
  HumidityRatioDifference,                !- Zone Latent Heating Design Supply Air Humidity Ratio Input Method
  ,                                       !- Zone Humidification Design Supply Air Humidity Ratio {kgWater/kgDryAir}
  0.005,                                  !- Zone Humidification Design Supply Air Humidity Ratio Difference {kgWater/kgDryAir}
  ,                                       !- Zone Humidistat Dehumidification Set Point Schedule Name
  ,                                       !- Zone Humidistat Humidification Set Point Schedule Name
  ,                                       !- Design Zone Air Distribution Effectiveness in Cooling Mode
  ,                                       !- Design Zone Air Distribution Effectiveness in Heating Mode
  ,                                       !- Design Zone Secondary Recirculation Fraction {dimensionless}
  ,                                       !- Design Minimum Zone Ventilation Efficiency {dimensionless}
  Coincident;                             !- Sizing Option

OS:ZoneHVAC:EquipmentList,
  {37d45134-3372-4800-90d1-6d3d339ad778}, !- Handle
  Zone HVAC Equipment List 1,             !- Name
  {2b7b1552-3371-471d-a51c-645245196fcc}, !- Thermal Zone
  ,                                       !- Load Distribution Scheme
  {0d525cd0-8f97-4d14-a306-eff6a3eb6b63}, !- Zone Equipment 1
  1,                                      !- Zone Equipment Cooling Sequence 1
  1,                                      !- Zone Equipment Heating or No-Load Sequence 1
  {8b19ea4a-455b-465c-a2ff-367c816ee070}, !- Zone Equipment Sequential Cooling Fraction Schedule Name 1
  {cc95d005-7135-4731-86c9-5b3d674fc2bc}; !- Zone Equipment Sequential Heating Fraction Schedule Name 1

OS:AdditionalProperties,
  {af44e809-fd54-41d8-bb81-e0c09042001c}, !- Handle
  {2b7b1552-3371-471d-a51c-645245196fcc}, !- Object Name
  ObjectType,                             !- Feature Name 1
  String,                                 !- Feature Data Type 1
  conditioned space;                      !- Feature Value 1

OS:Space,
  {c624e4dc-bc15-46a6-b454-06859824c9b1}, !- Handle
  conditioned space 1,                    !- Name
  ,                                       !- Space Type Name
  ,                                       !- Default Construction Set Name
  ,                                       !- Default Schedule Set Name
  ,                                       !- Direction of Relative North {deg}
  ,                                       !- X Origin {m}
  ,                                       !- Y Origin {m}
  ,                                       !- Z Origin {m}
  ,                                       !- Building Story Name
  {2b7b1552-3371-471d-a51c-645245196fcc}, !- Thermal Zone Name
  ,                                       !- Part of Total Floor Area
  ,                                       !- Design Specification Outdoor Air Object Name
  ,                                       !- Building Unit Name
  692.06373070848;                        !- Volume {m3}

OS:Schedule:Ruleset,
  {44793d61-0b03-41a0-a6b2-f609bfb7b4d5}, !- Handle
  heating setpoint,                       !- Name
  {217e33e2-0700-444f-bfc1-2c24703b704e}, !- Schedule Type Limits Name
  {398726ea-1561-4d82-bb40-0915933020af}; !- Default Day Schedule Name

OS:Schedule:Day,
  {398726ea-1561-4d82-bb40-0915933020af}, !- Handle
  heating setpoint default day,           !- Name
  {217e33e2-0700-444f-bfc1-2c24703b704e}, !- Schedule Type Limits Name
  ,                                       !- Interpolate to Timestep
  24,                                     !- Hour 1
  0,                                      !- Minute 1
  0;                                      !- Value Until Time 1

OS:Schedule:Rule,
  {8778f5e1-e01e-41e5-a72b-aee6c28b2a44}, !- Handle
  heating setpoint allday rule,           !- Name
  {44793d61-0b03-41a0-a6b2-f609bfb7b4d5}, !- Schedule Ruleset Name
  0,                                      !- Rule Order
  {6316e331-cf88-40a1-820a-9fdc6f272569}, !- Day Schedule Name
  Yes,                                    !- Apply Sunday
  Yes,                                    !- Apply Monday
  Yes,                                    !- Apply Tuesday
  Yes,                                    !- Apply Wednesday
  Yes,                                    !- Apply Thursday
  Yes,                                    !- Apply Friday
  Yes,                                    !- Apply Saturday
  DateRange,                              !- Date Specification Type
  1,                                      !- Start Month
  1,                                      !- Start Day
  12,                                     !- End Month
  31;                                     !- End Day

OS:Schedule:Day,
  {6316e331-cf88-40a1-820a-9fdc6f272569}, !- Handle
  heating setpoint day,                   !- Name
  {217e33e2-0700-444f-bfc1-2c24703b704e}, !- Schedule Type Limits Name
  ,                                       !- Interpolate to Timestep
  24,                                     !- Hour 1
  0,                                      !- Minute 1
  20;                                     !- Value Until Time 1

OS:Schedule:Ruleset,
  {6c5b5682-8344-40ea-8691-8c9a1e7eeb16}, !- Handle
  cooling setpoint,                       !- Name
  {217e33e2-0700-444f-bfc1-2c24703b704e}, !- Schedule Type Limits Name
  {65c730f0-2140-468f-a72b-3b34e82d7345}; !- Default Day Schedule Name

OS:Schedule:Day,
  {65c730f0-2140-468f-a72b-3b34e82d7345}, !- Handle
  cooling setpoint default day,           !- Name
  {217e33e2-0700-444f-bfc1-2c24703b704e}, !- Schedule Type Limits Name
  ,                                       !- Interpolate to Timestep
  24,                                     !- Hour 1
  0,                                      !- Minute 1
  0;                                      !- Value Until Time 1

OS:Schedule:Rule,
  {21b91400-2d56-456d-9ab9-099cb5d6f529}, !- Handle
  cooling setpoint allday rule,           !- Name
  {6c5b5682-8344-40ea-8691-8c9a1e7eeb16}, !- Schedule Ruleset Name
  0,                                      !- Rule Order
  {a93e2ecb-1db8-4e1f-8e2a-af4efc8bdf36}, !- Day Schedule Name
  Yes,                                    !- Apply Sunday
  Yes,                                    !- Apply Monday
  Yes,                                    !- Apply Tuesday
  Yes,                                    !- Apply Wednesday
  Yes,                                    !- Apply Thursday
  Yes,                                    !- Apply Friday
  Yes,                                    !- Apply Saturday
  DateRange,                              !- Date Specification Type
  1,                                      !- Start Month
  1,                                      !- Start Day
  12,                                     !- End Month
  31;                                     !- End Day

OS:Schedule:Day,
  {a93e2ecb-1db8-4e1f-8e2a-af4efc8bdf36}, !- Handle
  cooling setpoint day,                   !- Name
  {217e33e2-0700-444f-bfc1-2c24703b704e}, !- Schedule Type Limits Name
  ,                                       !- Interpolate to Timestep
  24,                                     !- Hour 1
  0,                                      !- Minute 1
  25.5555555555556;                       !- Value Until Time 1

OS:ThermostatSetpoint:DualSetpoint,
  {5e8b155c-23a6-499f-857a-fd5f1b0c8e10}, !- Handle
  conditioned space temperature setpoint, !- Name
  {44793d61-0b03-41a0-a6b2-f609bfb7b4d5}, !- Heating Setpoint Temperature Schedule Name
  {6c5b5682-8344-40ea-8691-8c9a1e7eeb16}, !- Cooling Setpoint Temperature Schedule Name
  0;                                      !- Temperature Difference Between Cutout And Setpoint {deltaC}

OS:ScheduleTypeLimits,
  {217e33e2-0700-444f-bfc1-2c24703b704e}, !- Handle
  Temperature,                            !- Name
  ,                                       !- Lower Limit Value
  ,                                       !- Upper Limit Value
  Continuous,                             !- Numeric Type
  Temperature;                            !- Unit Type

OS:Surface,
  {5765667c-aa82-4acb-870d-6eb5a6716f86}, !- Handle
  Roof1,                                  !- Name
  RoofCeiling,                            !- Surface Type
  {7f22bd83-aa75-4458-8b41-f1129f050f01}, !- Construction Name
  {9c112368-3ec0-427a-98bc-a9c5a91d9324}, !- Space Name
  Outdoors,                               !- Outside Boundary Condition
  ,                                       !- Outside Boundary Condition Object
  SunExposed,                             !- Sun Exposure
  WindExposed,                            !- Wind Exposure
  ,                                       !- View Factor to Ground
  ,                                       !- Number of Vertices
  9.8030170292795, 22.3990406761293, 3.048, !- X,Y,Z Vertex 1 {m}
  9.8030170292795, 11.1328146279089, 8.6811130241102, !- X,Y,Z Vertex 2 {m}
  22.3990406761293, 11.1328146279089, 8.6811130241102, !- X,Y,Z Vertex 3 {m}
  22.3990406761293, 22.3990406761293, 3.048; !- X,Y,Z Vertex 4 {m}

OS:AdditionalProperties,
  {f207e991-556c-40bb-994b-2bce0e916967}, !- Handle
  {5765667c-aa82-4acb-870d-6eb5a6716f86}, !- Object Name
  Length,                                 !- Feature Name 1
  Double,                                 !- Feature Data Type 1
  41.325536899113608,                     !- Feature Value 1
  Width,                                  !- Feature Name 2
  Double,                                 !- Feature Data Type 2
  41.325536899113601,                     !- Feature Value 2
  Azimuth,                                !- Feature Name 3
  Integer,                                !- Feature Data Type 3
  0,                                      !- Feature Value 3
  Tilt,                                   !- Feature Name 4
  Double,                                 !- Feature Data Type 4
  0.5,                                    !- Feature Value 4
  SurfaceType,                            !- Feature Name 5
  String,                                 !- Feature Data Type 5
  Roof;                                   !- Feature Value 5

OS:ThermalZone,
  {1ebb89a6-ac00-4963-953e-d2b6fc3447b8}, !- Handle
  attic - vented,                         !- Name
  1,                                      !- Multiplier
  ,                                       !- Ceiling Height {m}
  356.389957095237,                       !- Volume {m3}
  ,                                       !- Floor Area {m2}
  ,                                       !- Zone Inside Convection Algorithm
  ,                                       !- Zone Outside Convection Algorithm
  ,                                       !- Zone Conditioning Equipment List Name
  {7a8dc254-928b-4aba-b846-803ed23da89a}, !- Zone Air Inlet Port List
  {2d0fdb0b-6382-4a41-ae5c-f3a27a6f16e8}, !- Zone Air Exhaust Port List
  {bfda5e6f-aac6-47af-a087-079cd74309d3}, !- Zone Air Node Name
  {6b379f72-a238-4625-9fe6-52e4e7fed6cd}, !- Zone Return Air Port List
  ,                                       !- Primary Daylighting Control Name
  ,                                       !- Fraction of Zone Controlled by Primary Daylighting Control
  ,                                       !- Secondary Daylighting Control Name
  ,                                       !- Fraction of Zone Controlled by Secondary Daylighting Control
  ,                                       !- Illuminance Map Name
  ,                                       !- Group Rendering Name
  ,                                       !- Thermostat Name
  No;                                     !- Use Ideal Air Loads

OS:Node,
  {f352065a-af07-44e8-9208-ec6b34f3e9f2}, !- Handle
  Node 2,                                 !- Name
  {bfda5e6f-aac6-47af-a087-079cd74309d3}, !- Inlet Port
  ;                                       !- Outlet Port

OS:Connection,
  {bfda5e6f-aac6-47af-a087-079cd74309d3}, !- Handle
  {1ebb89a6-ac00-4963-953e-d2b6fc3447b8}, !- Source Object
  11,                                     !- Outlet Port
  {f352065a-af07-44e8-9208-ec6b34f3e9f2}, !- Target Object
  2;                                      !- Inlet Port

OS:PortList,
  {7a8dc254-928b-4aba-b846-803ed23da89a}, !- Handle
  {1ebb89a6-ac00-4963-953e-d2b6fc3447b8}; !- HVAC Component

OS:PortList,
  {2d0fdb0b-6382-4a41-ae5c-f3a27a6f16e8}, !- Handle
  {1ebb89a6-ac00-4963-953e-d2b6fc3447b8}; !- HVAC Component

OS:PortList,
  {6b379f72-a238-4625-9fe6-52e4e7fed6cd}, !- Handle
  {1ebb89a6-ac00-4963-953e-d2b6fc3447b8}; !- HVAC Component

OS:Sizing:Zone,
  {317291e2-1b54-428a-9018-aad0d7528222}, !- Handle
  {1ebb89a6-ac00-4963-953e-d2b6fc3447b8}, !- Zone or ZoneList Name
  SupplyAirTemperature,                   !- Zone Cooling Design Supply Air Temperature Input Method
  14,                                     !- Zone Cooling Design Supply Air Temperature {C}
  11.11,                                  !- Zone Cooling Design Supply Air Temperature Difference {deltaC}
  SupplyAirTemperature,                   !- Zone Heating Design Supply Air Temperature Input Method
  40,                                     !- Zone Heating Design Supply Air Temperature {C}
  11.11,                                  !- Zone Heating Design Supply Air Temperature Difference {deltaC}
  0.0085,                                 !- Zone Cooling Design Supply Air Humidity Ratio {kg-H2O/kg-air}
  0.008,                                  !- Zone Heating Design Supply Air Humidity Ratio {kg-H2O/kg-air}
  ,                                       !- Zone Heating Sizing Factor
  ,                                       !- Zone Cooling Sizing Factor
  DesignDay,                              !- Cooling Design Air Flow Method
  ,                                       !- Cooling Design Air Flow Rate {m3/s}
  ,                                       !- Cooling Minimum Air Flow per Zone Floor Area {m3/s-m2}
  ,                                       !- Cooling Minimum Air Flow {m3/s}
  ,                                       !- Cooling Minimum Air Flow Fraction
  DesignDay,                              !- Heating Design Air Flow Method
  ,                                       !- Heating Design Air Flow Rate {m3/s}
  ,                                       !- Heating Maximum Air Flow per Zone Floor Area {m3/s-m2}
  ,                                       !- Heating Maximum Air Flow {m3/s}
  ,                                       !- Heating Maximum Air Flow Fraction
  No,                                     !- Account for Dedicated Outdoor Air System
  NeutralSupplyAir,                       !- Dedicated Outdoor Air System Control Strategy
  autosize,                               !- Dedicated Outdoor Air Low Setpoint Temperature for Design {C}
  autosize,                               !- Dedicated Outdoor Air High Setpoint Temperature for Design {C}
  Sensible Load Only No Latent Load,      !- Zone Load Sizing Method
  HumidityRatioDifference,                !- Zone Latent Cooling Design Supply Air Humidity Ratio Input Method
  ,                                       !- Zone Dehumidification Design Supply Air Humidity Ratio {kgWater/kgDryAir}
  0.005,                                  !- Zone Cooling Design Supply Air Humidity Ratio Difference {kgWater/kgDryAir}
  HumidityRatioDifference,                !- Zone Latent Heating Design Supply Air Humidity Ratio Input Method
  ,                                       !- Zone Humidification Design Supply Air Humidity Ratio {kgWater/kgDryAir}
  0.005,                                  !- Zone Humidification Design Supply Air Humidity Ratio Difference {kgWater/kgDryAir}
  ,                                       !- Zone Humidistat Dehumidification Set Point Schedule Name
  ,                                       !- Zone Humidistat Humidification Set Point Schedule Name
  ,                                       !- Design Zone Air Distribution Effectiveness in Cooling Mode
  ,                                       !- Design Zone Air Distribution Effectiveness in Heating Mode
  ,                                       !- Design Zone Secondary Recirculation Fraction {dimensionless}
  ,                                       !- Design Minimum Zone Ventilation Efficiency {dimensionless}
  Coincident;                             !- Sizing Option

OS:ZoneHVAC:EquipmentList,
  {8b536183-63ae-440c-8091-fd55f6bd4176}, !- Handle
  Zone HVAC Equipment List 2,             !- Name
  {1ebb89a6-ac00-4963-953e-d2b6fc3447b8}; !- Thermal Zone

OS:AdditionalProperties,
  {8b1e4d31-89f9-4b7f-b09e-a764806dd7d3}, !- Handle
  {1ebb89a6-ac00-4963-953e-d2b6fc3447b8}, !- Object Name
  ObjectType,                             !- Feature Name 1
  String,                                 !- Feature Data Type 1
  attic - vented;                         !- Feature Value 1

OS:Space,
  {9c112368-3ec0-427a-98bc-a9c5a91d9324}, !- Handle
  attic - vented 1,                       !- Name
  ,                                       !- Space Type Name
  ,                                       !- Default Construction Set Name
  ,                                       !- Default Schedule Set Name
  ,                                       !- Direction of Relative North {deg}
  ,                                       !- X Origin {m}
  ,                                       !- Y Origin {m}
  ,                                       !- Z Origin {m}
  ,                                       !- Building Story Name
  {1ebb89a6-ac00-4963-953e-d2b6fc3447b8}, !- Thermal Zone Name
  ,                                       !- Part of Total Floor Area
  ,                                       !- Design Specification Outdoor Air Object Name
  ,                                       !- Building Unit Name
  356.389957095237;                       !- Volume {m3}

OS:Material,
  {20cbec8a-58fe-4fbd-af50-5a7185f7e48b}, !- Handle
  asphalt or fiberglass shingles,         !- Name
  Rough,                                  !- Roughness
  0.00635,                                !- Thickness {m}
  0.162714,                               !- Conductivity {W/m-K}
  1121.4,                                 !- Density {kg/m3}
  1465.45,                                !- Specific Heat {J/kg-K}
  0.9,                                    !- Thermal Absorptance
  0.85,                                   !- Solar Absorptance