
OS:Version,
  {623422ab-9319-4e51-9e78-94bd73c2dbc9}, !- Handle
  3.10.0;                                 !- Version Identifier

OS:SimulationControl,
  {f569ab02-0c89-4e99-97f3-e62c182cccd4}, !- Handle
  ,                                       !- Do Zone Sizing Calculation
  ,                                       !- Do System Sizing Calculation
  ,                                       !- Do Plant Sizing Calculation
  No;                                     !- Run Simulation for Sizing Periods

OS:Timestep,
  {22259615-cfa1-4e9d-b723-360c59ea021e}, !- Handle
  1;                                      !- Number of Timesteps per Hour

OS:ShadowCalculation,
  {570cd4d2-5bce-4a04-beb0-6782cd91de19}, !- Handle
  PolygonClipping,                        !- Shading Calculation Method
  ,                                       !- Shading Calculation Update Frequency Method
  20,                                     !- Shading Calculation Update Frequency
  200,                                    !- Maximum Figures in Shadow Overlap Calculations
  ,                                       !- Polygon Clipping Algorithm
  512,                                    !- Pixel Counting Resolution
  ,                                       !- Sky Diffuse Modeling Algorithm
  No,                                     !- Output External Shading Calculation Results
  No,                                     !- Disable Self-Shading Within Shading Zone Groups
  No;                                     !- Disable Self-Shading From Shading Zone Groups to Other Zones

OS:SurfaceConvectionAlgorithm:Outside,
  {dcbc3b55-5dd8-40b4-b7a1-ff47db7275cc}, !- Handle
  DOE-2;                                  !- Algorithm

OS:SurfaceConvectionAlgorithm:Inside,
  {e8ce8b50-b15f-4f1a-9386-75e7a3f56f18}, !- Handle
  TARP;                                   !- Algorithm

OS:ZoneCapacitanceMultiplier:ResearchSpecial,
  {31e97c52-21b1-45dc-bddd-6937c791034b}, !- Handle
  7,                                      !- Temperature Capacity Multiplier
  15,                                     !- Humidity Capacity Multiplier
  ;                                       !- Carbon Dioxide Capacity Multiplier

OS:ConvergenceLimits,
  {037ba2ac-0c2e-467c-b55c-9b9456b2331a}, !- Handle
  0;                                      !- Minimum System Timestep {minutes}

OS:RunPeriod,
  {f7848a7f-d3bd-46f8-aab2-c5d600f17efc}, !- Handle
  Run Period 1,                           !- Name
  1,                                      !- Begin Month
  1,                                      !- Begin Day of Month
  12,                                     !- End Month
  31,                                     !- End Day of Month
  ,                                       !- Use Weather File Holidays and Special Days
  ,                                       !- Use Weather File Daylight Saving Period
  ,                                       !- Apply Weekend Holiday Rule
  ,                                       !- Use Weather File Rain Indicators
  ,                                       !- Use Weather File Snow Indicators
  ;                                       !- Number of Times Runperiod to be Repeated

OS:PerformancePrecisionTradeoffs,
  {d2f30c1e-8f9c-4bf6-9c63-a299640d470f}, !- Handle
  ,                                       !- Use Coil Direct Solutions
  CarrollMRT;                             !- Zone Radiant Exchange Algorithm

OS:WeatherFile,
  {59bc6233-af95-4e6b-a8e6-69ab13f2a0dd}, !- Handle
  Buffalo Niagara Intl Ap,                !- City
  NY,                                     !- State Province Region
  USA,                                    !- Country
  TMY3,                                   !- Data Source
  725280,                                 !- WMO Number
  42.93,                                  !- Latitude {deg}
  -78.73,                                 !- Longitude {deg}
  -5,                                     !- Time Zone {hr}
  215,                                    !- Elevation {m}
  /Users/nmoore/github/urbanopt-example-geojson-project/example_project/weather/USA_NY_Buffalo-Greater.Buffalo.Intl.AP.725280_TMY3.epw, !- Url
  6B50E0FF,                               !- Checksum
  ,                                       !- Start Date Actual Year
  Sunday;                                 !- Start Day of Week

OS:YearDescription,
  {2847ab39-da15-423a-a52b-d1f7585d4202}, !- Handle
  2007,                                   !- Calendar Year
  ,                                       !- Day of Week for Start Day
  ;                                       !- Is Leap Year

OS:Site,
  {86b1ddce-22c6-4a59-b5f8-61ec1e759885}, !- Handle
  Buffalo Niagara Intl Ap_NY,             !- Name
  42.93,                                  !- Latitude {deg}
  -78.73,                                 !- Longitude {deg}
  -5,                                     !- Time Zone {hr}
  215,                                    !- Elevation {m}
  Suburbs,                                !- Terrain
  Yes;                                    !- Keep Site Location Information

OS:RunPeriodControl:DaylightSavingTime,
  {8ad4d335-3b6c-47f7-8cd6-894036ea9b55}, !- Handle
  Mar 12,                                 !- Start Date
  Nov 5;                                  !- End Date

OS:Site:GroundTemperature:Shallow,
  {6098674a-00ff-45d9-9764-7f59f800d7bf}, !- Handle
  4.30207395723828,                       !- January Surface Ground Temperature {C}
  2.29327249652502,                       !- February Surface Ground Temperature {C}
  2.13240047156047,                       !- March Surface Ground Temperature {C}
  3.08567940719286,                       !- April Surface Ground Temperature {C}
  6.91256312497526,                       !- May Surface Ground Temperature {C}
  10.7216195949507,                       !- June Surface Ground Temperature {C}
  14.0238679822574,                       !- July Surface Ground Temperature {C}
  16.1157611184724,                       !- August Surface Ground Temperature {C}
  16.2934789303462,                       !- September Surface Ground Temperature {C}
  14.5920754632847,                       !- October Surface Ground Temperature {C}
  11.374036348653,                        !- November Surface Ground Temperature {C}
  7.68182621661674;                       !- December Surface Ground Temperature {C}

OS:ThermalZone,
  {930edb9f-1b18-4f87-9ab6-82fe5f91d763}, !- Handle
  conditioned space,                      !- Name
  1,                                      !- Multiplier
  ,                                       !- Ceiling Height {m}
  346.03186535424,                        !- Volume {m3}
  ,                                       !- Floor Area {m2}
  ,                                       !- Zone Inside Convection Algorithm
  ,                                       !- Zone Outside Convection Algorithm
  ,                                       !- Zone Conditioning Equipment List Name
  {a718ce1e-3d46-413e-b72e-5a9e1242af0f}, !- Zone Air Inlet Port List
  {3ee1a462-3dae-4e9d-85d8-3a134dce7f21}, !- Zone Air Exhaust Port List
  {f1e32348-37f0-4d22-a8a8-015476ec0070}, !- Zone Air Node Name
  {c1c1e00d-1208-442b-94a9-658ccb43ca85}, !- Zone Return Air Port List
  ,                                       !- Primary Daylighting Control Name
  ,                                       !- Fraction of Zone Controlled by Primary Daylighting Control
  ,                                       !- Secondary Daylighting Control Name
  ,                                       !- Fraction of Zone Controlled by Secondary Daylighting Control
  ,                                       !- Illuminance Map Name
  ,                                       !- Group Rendering Name
  {9a16c3c3-cdbf-4ba8-a25f-34cd1f9d3a23}, !- Thermostat Name
  No;                                     !- Use Ideal Air Loads

OS:Node,
  {3c85d500-8a4e-4997-8b5e-3581aa6d7466}, !- Handle
  Node 1,                                 !- Name
  {f1e32348-37f0-4d22-a8a8-015476ec0070}, !- Inlet Port
  ;                                       !- Outlet Port

OS:Connection,
  {f1e32348-37f0-4d22-a8a8-015476ec0070}, !- Handle
  {930edb9f-1b18-4f87-9ab6-82fe5f91d763}, !- Source Object
  11,                                     !- Outlet Port
  {3c85d500-8a4e-4997-8b5e-3581aa6d7466}, !- Target Object
  2;                                      !- Inlet Port

OS:PortList,
  {a718ce1e-3d46-413e-b72e-5a9e1242af0f}, !- Handle
  {930edb9f-1b18-4f87-9ab6-82fe5f91d763}, !- HVAC Component
  {c5f69d1d-5ddc-4365-88cb-78e914a2a660}; !- Port 1

OS:PortList,
  {3ee1a462-3dae-4e9d-85d8-3a134dce7f21}, !- Handle
  {930edb9f-1b18-4f87-9ab6-82fe5f91d763}; !- HVAC Component

OS:PortList,
  {c1c1e00d-1208-442b-94a9-658ccb43ca85}, !- Handle
  {930edb9f-1b18-4f87-9ab6-82fe5f91d763}, !- HVAC Component
  {32f8e39f-8a7a-41a5-a84e-7639f61a0d4a}; !- Port 1

OS:Sizing:Zone,
  {aa2b7525-42ea-4e98-9ce5-3ccf7296e938}, !- Handle
  {930edb9f-1b18-4f87-9ab6-82fe5f91d763}, !- Zone or ZoneList Name
  SupplyAirTemperature,                   !- Zone Cooling Design Supply Air Temperature Input Method
  14,                                     !- Zone Cooling Design Supply Air Temperature {C}
  11.11,                                  !- Zone Cooling Design Supply Air Temperature Difference {deltaC}
  SupplyAirTemperature,                   !- Zone Heating Design Supply Air Temperature Input Method
  40,                                     !- Zone Heating Design Supply Air Temperature {C}
  11.11,                                  !- Zone Heating Design Supply Air Temperature Difference {deltaC}
  0.0085,                                 !- Zone Cooling Design Supply Air Humidity Ratio {kg-H2O/kg-air}
  0.008,                                  !- Zone Heating Design Supply Air Humidity Ratio {kg-H2O/kg-air}
  ,                                       !- Zone Heating Sizing Factor
  ,                                       !- Zone Cooling Sizing Factor
  DesignDay,                              !- Cooling Design Air Flow Method
  ,                                       !- Cooling Design Air Flow Rate {m3/s}
  ,                                       !- Cooling Minimum Air Flow per Zone Floor Area {m3/s-m2}
  ,                                       !- Cooling Minimum Air Flow {m3/s}
  ,                                       !- Cooling Minimum Air Flow Fraction
  DesignDay,                              !- Heating Design Air Flow Method
  ,                                       !- Heating Design Air Flow Rate {m3/s}
  ,                                       !- Heating Maximum Air Flow per Zone Floor Area {m3/s-m2}
  ,                                       !- Heating Maximum Air Flow {m3/s}
  ,                                       !- Heating Maximum Air Flow Fraction
  No,                                     !- Account for Dedicated Outdoor Air System
  NeutralSupplyAir,                       !- Dedicated Outdoor Air System Control Strategy
  autosize,                               !- Dedicated Outdoor Air Low Setpoint Temperature for Design {C}
  autosize,                               !- Dedicated Outdoor Air High Setpoint Temperature for Design {C}
  Sensible Load Only No Latent Load,      !- Zone Load Sizing Method
  HumidityRatioDifference,                !- Zone Latent Cooling Design Supply Air Humidity Ratio Input Method
  ,                                       !- Zone Dehumidification Design Supply Air Humidity Ratio {kgWater/kgDryAir}
  0.005,                                  !- Zone Cooling Design Supply Air Humidity Ratio Difference {kgWater/kgDryAir}
  HumidityRatioDifference,                !- Zone Latent Heating Design Supply Air Humidity Ratio Input Method
  ,                                       !- Zone Humidification Design Supply Air Humidity Ratio {kgWater/kgDryAir}
  0.005,                                  !- Zone Humidification Design Supply Air Humidity Ratio Difference {kgWater/kgDryAir}
  ,                                       !- Zone Humidistat Dehumidification Set Point Schedule Name
  ,                                       !- Zone Humidistat Humidification Set Point Schedule Name
  ,                                       !- Design Zone Air Distribution Effectiveness in Cooling Mode
  ,                                       !- Design Zone Air Distribution Effectiveness in Heating Mode
  ,                                       !- Design Zone Secondary Recirculation Fraction {dimensionless}
  ,                                       !- Design Minimum Zone Ventilation Efficiency {dimensionless}
  Coincident;                             !- Sizing Option

OS:ZoneHVAC:EquipmentList,
  {3859183d-e325-4d76-9f0d-f807b5e75077}, !- Handle
  Zone HVAC Equipment List 1,             !- Name
  {930edb9f-1b18-4f87-9ab6-82fe5f91d763}, !- Thermal Zone
  ,                                       !- Load Distribution Scheme
  {ae88e834-d021-486a-89cb-0664129283b7}, !- Zone Equipment 1
  1,                                      !- Zone Equipment Cooling Sequence 1
  1,                                      !- Zone Equipment Heating or No-Load Sequence 1
  {6241f887-73cd-40b8-95df-7d2f408dea03}, !- Zone Equipment Sequential Cooling Fraction Schedule Name 1
  {ed833546-42cd-4a78-97b2-81b7f342a1dc}; !- Zone Equipment Sequential Heating Fraction Schedule Name 1

OS:AdditionalProperties,
  {735f73ba-22ed-496b-8ed3-15ec7c74c738}, !- Handle
  {930edb9f-1b18-4f87-9ab6-82fe5f91d763}, !- Object Name
  ObjectType,                             !- Feature Name 1
  String,                                 !- Feature Data Type 1
  conditioned space;                      !- Feature Value 1

OS:Space,
  {ec5f9568-a5c6-4371-a3c8-58bc45bd7529}, !- Handle
  conditioned space 1,                    !- Name
  ,                                       !- Space Type Name
  ,                                       !- Default Construction Set Name
  ,                                       !- Default Schedule Set Name
  ,                                       !- Direction of Relative North {deg}
  ,                                       !- X Origin {m}
  ,                                       !- Y Origin {m}
  ,                                       !- Z Origin {m}
  ,                                       !- Building Story Name
  {930edb9f-1b18-4f87-9ab6-82fe5f91d763}, !- Thermal Zone Name
  ,                                       !- Part of Total Floor Area
  ,                                       !- Design Specification Outdoor Air Object Name
  ,                                       !- Building Unit Name
  346.03186535424;                        !- Volume {m3}

OS:Schedule:Ruleset,
  {ae67c6f3-c9bb-4534-9960-a8df0f875949}, !- Handle
  heating setpoint,                       !- Name
  {4f78ab89-02e5-41be-89a5-bb88189ddeb6}, !- Schedule Type Limits Name
  {77d0ae4b-e9e1-4e9e-8e29-8809263c0338}; !- Default Day Schedule Name

OS:Schedule:Day,
  {77d0ae4b-e9e1-4e9e-8e29-8809263c0338}, !- Handle
  heating setpoint default day,           !- Name
  {4f78ab89-02e5-41be-89a5-bb88189ddeb6}, !- Schedule Type Limits Name
  ,                                       !- Interpolate to Timestep
  24,                                     !- Hour 1
  0,                                      !- Minute 1
  0;                                      !- Value Until Time 1

OS:Schedule:Rule,
  {a73d1cda-76da-4d91-81e8-310fdd8c0331}, !- Handle
  heating setpoint allday rule,           !- Name
  {ae67c6f3-c9bb-4534-9960-a8df0f875949}, !- Schedule Ruleset Name
  0,                                      !- Rule Order
  {0f036baa-8dfe-4f27-8952-262fc3c8ee0e}, !- Day Schedule Name
  Yes,                                    !- Apply Sunday
  Yes,                                    !- Apply Monday
  Yes,                                    !- Apply Tuesday
  Yes,                                    !- Apply Wednesday
  Yes,                                    !- Apply Thursday
  Yes,                                    !- Apply Friday
  Yes,                                    !- Apply Saturday
  DateRange,                              !- Date Specification Type
  1,                                      !- Start Month
  1,                                      !- Start Day
  12,                                     !- End Month
  31;                                     !- End Day

OS:Schedule:Day,
  {0f036baa-8dfe-4f27-8952-262fc3c8ee0e}, !- Handle
  heating setpoint day,                   !- Name
  {4f78ab89-02e5-41be-89a5-bb88189ddeb6}, !- Schedule Type Limits Name
  ,                                       !- Interpolate to Timestep
  24,                                     !- Hour 1
  0,                                      !- Minute 1
  20;                                     !- Value Until Time 1

OS:Schedule:Ruleset,
  {26c81333-4e98-4f57-8b1b-b32a6109b869}, !- Handle
  cooling setpoint,                       !- Name
  {4f78ab89-02e5-41be-89a5-bb88189ddeb6}, !- Schedule Type Limits Name
  {66001a77-9a44-48bd-b1fb-8cce7cc86b73}; !- Default Day Schedule Name

OS:Schedule:Day,
  {66001a77-9a44-48bd-b1fb-8cce7cc86b73}, !- Handle
  cooling setpoint default day,           !- Name
  {4f78ab89-02e5-41be-89a5-bb88189ddeb6}, !- Schedule Type Limits Name
  ,                                       !- Interpolate to Timestep
  24,                                     !- Hour 1
  0,                                      !- Minute 1
  0;                                      !- Value Until Time 1

OS:Schedule:Rule,
  {c569bb87-d4bf-42b4-851c-2125dd5a2e75}, !- Handle
  cooling setpoint allday rule,           !- Name
  {26c81333-4e98-4f57-8b1b-b32a6109b869}, !- Schedule Ruleset Name
  0,                                      !- Rule Order
  {2c03877a-1240-416c-ac6b-cd9e544945f9}, !- Day Schedule Name
  Yes,                                    !- Apply Sunday
  Yes,                                    !- Apply Monday
  Yes,                                    !- Apply Tuesday
  Yes,                                    !- Apply Wednesday
  Yes,                                    !- Apply Thursday
  Yes,                                    !- Apply Friday
  Yes,                                    !- Apply Saturday
  DateRange,                              !- Date Specification Type
  1,                                      !- Start Month
  1,                                      !- Start Day
  12,                                     !- End Month
  31;                                     !- End Day

OS:Schedule:Day,
  {2c03877a-1240-416c-ac6b-cd9e544945f9}, !- Handle
  cooling setpoint day,                   !- Name
  {4f78ab89-02e5-41be-89a5-bb88189ddeb6}, !- Schedule Type Limits Name
  ,                                       !- Interpolate to Timestep
  24,                                     !- Hour 1
  0,                                      !- Minute 1
  25.5555555555556;                       !- Value Until Time 1

OS:ThermostatSetpoint:DualSetpoint,
  {9a16c3c3-cdbf-4ba8-a25f-34cd1f9d3a23}, !- Handle
  conditioned space temperature setpoint, !- Name
  {ae67c6f3-c9bb-4534-9960-a8df0f875949}, !- Heating Setpoint Temperature Schedule Name
  {26c81333-4e98-4f57-8b1b-b32a6109b869}, !- Cooling Setpoint Temperature Schedule Name
  0;                                      !- Temperature Difference Between Cutout And Setpoint {deltaC}

OS:ScheduleTypeLimits,
  {4f78ab89-02e5-41be-89a5-bb88189ddeb6}, !- Handle
  Temperature,                            !- Name
  ,                                       !- Lower Limit Value
  ,                                       !- Upper Limit Value
  Continuous,                             !- Numeric Type
  Temperature;                            !- Unit Type

OS:Surface,
  {a01afd55-e5df-4db7-9cb1-b24ea143c44f}, !- Handle
  Wall1,                                  !- Name
  Wall,                                   !- Surface Type
  {5ec44807-c764-4eca-8471-fc5f3de465a3}, !- Construction Name
  {ec5f9568-a5c6-4371-a3c8-58bc45bd7529}, !- Space Name
  Outdoors,                               !- Outside Boundary Condition
  ,                                       !- Outside Boundary Condition Object
  SunExposed,                             !- Sun Exposure
  WindExposed,                            !- Wind Exposure
  ,                                       !- View Factor to Ground
  ,                                       !- Number of Vertices
  -41.689655, 42.6186854, 0,              !- X,Y,Z Vertex 1 {m}
  -41.689655, 42.6186854, 2.4384,         !- X,Y,Z Vertex 2 {m}
  -29.775785, 42.6186854, 2.4384,         !- X,Y,Z Vertex 3 {m}
  -29.775785, 42.6186854, 0;              !- X,Y,Z Vertex 4 {m}

OS:AdditionalProperties,
  {c1f10da1-785c-46cb-8487-e2c2e3b93c56}, !- Handle
  {a01afd55-e5df-4db7-9cb1-b24ea143c44f}, !- Object Name
  Length,                                 !- Feature Name 1
  Double,                                 !- Feature Data Type 1
  39.087499999999999,                     !- Feature Value 1
  Azimuth,                                !- Feature Name 2
  Integer,                                !- Feature Data Type 2
  0,                                      !- Feature Value 2
  Tilt,                                   !- Feature Name 3
  Double,                                 !- Feature Data Type 3
  90,                                     !- Feature Value 3
  SurfaceType,                            !- Feature Name 4
  String,                                 !- Feature Data Type 4
  Wall;                                   !- Feature Value 4

OS:Material,
  {8b5d98a7-ece3-4964-8fd2-d44a1d82263d}, !- Handle
  wood siding,                            !- Name
  Rough,                                  !- Roughness
  0.0254,                                 !- Thickness {m}
  0.1024175,                              !- Conductivity {W/m-K}
  544.68,                                 !- Density {kg/m3}
  1172.36,                                !- Specific Heat {J/kg-K}
  0.9,                                    !- Thermal Absorptance
  0.7,                                    !- Solar Absorptance
  0.7;                                    !- Visible Absorptance

OS:Material,
  {255aa560-466b-448f-b9b7-2ba2338e51b7}, !- Handle
  osb sheathing 0.5 in.,                  !- Name
  Rough,                                  !- Roughness
  0.0127,                                 !- Thickness {m}
  0.1154577,                              !- Conductivity {W/m-K}
  512.64,                                 !- Density {kg/m3}
  1214.23,                                !- Specific Heat {J/kg-K}
  0.9,                                    !- Thermal Absorptance
  0.7,                                    !- Solar Absorptance
  0.7;                                    !- Visible Absorptance

OS:Material,
  {c02e7944-9d56-494c-9b53-a4d17215d0f7}, !- Handle
  wall stud and cavity,                   !- Name
  Rough,                                  !- Roughness
  0.1397,                                 !- Thickness {m}
  0.0929021674204099,                     !- Conductivity {W/m-K}
  139.0536,                               !- Density {kg/m3}
  1170.23755760369,                       !- Specific Heat {J/kg-K}
  0.9,                                    !- Thermal Absorptance
  0.7,                                    !- Solar Absorptance
  0.7;                                    !- Visible Absorptance

OS:Material,
  {7c868e9d-670e-475f-9fd5-f86e602a7b4a}, !- Handle
  gypsum board,                           !- Name
  Rough,                                  !- Roughness
  0.0127,                                 !- Thickness {m}
  0.1602906,                              !- Conductivity {W/m-K}
  801,                                    !- Density {kg/m3}
  837.4,                                  !- Specific Heat {J/kg-K}
  0.9,                                    !- Thermal Absorptance
  0.6,                                    !- Solar Absorptance
  0.6;                                    !- Visible Absorptance

OS:Construction,
  {5ec44807-c764-4eca-8471-fc5f3de465a3}, !- Handle
  Wall1 construction,                     !- Name
  ,                                       !- Surface Rendering Name
  {8b5d98a7-ece3-4964-8fd2-d44a1d82263d}, !- Layer 1
  {255aa560-466b-448f-b9b7-2ba2338e51b7}, !- Layer 2
  {c02e7944-9d56-494c-9b53-a4d17215d0f7}, !- Layer 3
  {7c868e9d-670e-475f-9fd5-f86e602a7b4a}; !- Layer 4

OS:Surface,
  {03d5ccc3-7d7e-4220-8366-d569d148d06b}, !- Handle
  Wall2,                                  !- Name
  Wall,                                   !- Surface Type
  {9a53769c-d834-4611-b883-b8cfba2a67e4}, !- Construction Name
  {ec5f9568-a5c6-4371-a3c8-58bc45bd7529}, !- Space Name
  Outdoors,                               !- Outside Boundary Condition
  ,                                       !- Outside Boundary Condition Object
  SunExposed,                             !- Sun Exposure
  WindExposed,                            !- Wind Exposure
  ,                                       !- View Factor to Ground
  ,                                       !- Number of Vertices
  42.6186854, -36.6636554, 0,             !- X,Y,Z Vertex 1 {m}
  42.6186854, -36.6636554, 2.4384,        !- X,Y,Z Vertex 2 {m}
  42.6186854, -42.6186854, 2.4384,        !- X,Y,Z Vertex 3 {m}
  42.6186854, -42.6186854, 0;             !- X,Y,Z Vertex 4 {m}

OS:AdditionalProperties,
  {544b720e-c5a1-4848-9a5d-7ddf1f729e85}, !- Handle
  {03d5ccc3-7d7e-4220-8366-d569d148d06b}, !- Object Name
  Length,                                 !- Feature Name 1
  Double,                                 !- Feature Data Type 1
  19.537500000000001,                     !- Feature Value 1
  Azimuth,                                !- Feature Name 2
  Integer,                                !- Feature Data Type 2
  90,                                     !- Feature Value 2
  Tilt,                                   !- Feature Name 3
  Double,                                 !- Feature Data Type 3
  90,                                     !- Feature Value 3
  SurfaceType,                            !- Feature Name 4
  String,                                 !- Feature Data Type 4
  Wall;                                   !- Feature Value 4

OS:Construction,
  {9a53769c-d834-4611-b883-b8cfba2a67e4}, !- Handle
  Wall2 construction,                     !- Name
  ,                                       !- Surface Rendering Name
  {8b5d98a7-ece3-4964-8fd2-d44a1d82263d}, !- Layer 1
  {255aa560-466b-448f-b9b7-2ba2338e51b7}, !- Layer 2
  {c02e7944-9d56-494c-9b53-a4d17215d0f7}, !- Layer 3
  {7c868e9d-670e-475f-9fd5-f86e602a7b4a}; !- Layer 4

OS:Surface,
  {9a100b0a-e321-4eae-8b74-134dea225bfd}, !- Handle
  Wall3,                                  !- Name
  Wall,                                   !- Surface Type
  {ade3f81b-7254-4153-afbb-d344f912fbe9}, !- Construction Name
  {ec5f9568-a5c6-4371-a3c8-58bc45bd7529}, !- Space Name
  Outdoors,                               !- Outside Boundary Condition
  ,                                       !- Outside Boundary Condition Object
  SunExposed,                             !- Sun Exposure
  WindExposed,                            !- Wind Exposure
  ,                                       !- View Factor to Ground
  ,                                       !- Number of Vertices
  -29.6238419715142, -42.6186854, 0,      !- X,Y,Z Vertex 1 {m}
  -29.6238419715142, -42.6186854, 2.4384, !- X,Y,Z Vertex 2 {m}
  -40.7757119715142, -42.6186854, 2.4384, !- X,Y,Z Vertex 3 {m}
  -40.7757119715142, -42.6186854, 0;      !- X,Y,Z Vertex 4 {m}

OS:AdditionalProperties,
  {04a033ca-55c6-453a-86a2-5572ffecefb6}, !- Handle
  {9a100b0a-e321-4eae-8b74-134dea225bfd}, !- Object Name
  Length,                                 !- Feature Name 1
  Double,                                 !- Feature Data Type 1
  36.587499999999999,                     !- Feature Value 1
  Azimuth,                                !- Feature Name 2
  Integer,                                !- Feature Data Type 2
  180,                                    !- Feature Value 2
  Tilt,                                   !- Feature Name 3
  Double,                                 !- Feature Data Type 3
  90,                                     !- Feature Value 3
  SurfaceType,                            !- Feature Name 4
  String,                                 !- Feature Data Type 4
  Wall;                                   !- Feature Value 4

OS:Construction,
  {ade3f81b-7254-4153-afbb-d344f912fbe9}, !- Handle
  Wall3 construction,                     !- Name
  ,                                       !- Surface Rendering Name
  {8b5d98a7-ece3-4964-8fd2-d44a1d82263d}, !- Layer 1
  {255aa560-466b-448f-b9b7-2ba2338e51b7}, !- Layer 2
  {c02e7944-9d56-494c-9b53-a4d17215d0f7}, !- Layer 3
  {7c868e9d-670e-475f-9fd5-f86e602a7b4a}; !- Layer 4

OS:Surface,
  {93d483ef-e13f-4fec-b657-51a4844ca2c5}, !- Handle
  Wall4,                                  !- Name
  Wall,                                   !- Surface Type
  {693ae9e8-353b-47d2-95a7-e92af50e34e0}, !- Construction Name
  {ec5f9568-a5c6-4371-a3c8-58bc45bd7529}, !- Space Name
  Outdoors,                               !- Outside Boundary Condition
  ,                                       !- Outside Boundary Condition Object
  SunExposed,                             !- Sun Exposure
  WindExposed,                            !- Wind Exposure
  ,                                       !- View Factor to Ground
  ,                                       !- Number of Vertices
  -42.6186854, 36.6636554, 0,             !- X,Y,Z Vertex 1 {m}
  -42.6186854, 36.6636554, 2.4384,        !- X,Y,Z Vertex 2 {m}
  -42.6186854, 42.6186854, 2.4384,        !- X,Y,Z Vertex 3 {m}
  -42.6186854, 42.6186854, 0;             !- X,Y,Z Vertex 4 {m}

OS:AdditionalProperties,
  {a6447c5d-a277-41f1-baa6-17403eacbad0}, !- Handle
  {93d483ef-e13f-4fec-b657-51a4844ca2c5}, !- Object Name
  Length,                                 !- Feature Name 1