
OS:Version,
  {a2d64bad-cba1-430c-983d-260f07c3875b}, !- Handle
  3.9.0;                                  !- Version Identifier

OS:SimulationControl,
  {8afb4403-bb65-4472-89d9-05037fd9f5dd}, !- Handle
  ,                                       !- Do Zone Sizing Calculation
  ,                                       !- Do System Sizing Calculation
  ,                                       !- Do Plant Sizing Calculation
  No;                                     !- Run Simulation for Sizing Periods

OS:Timestep,
  {bb6b715a-5a45-4a56-99f6-bd4f9580fa32}, !- Handle
  1;                                      !- Number of Timesteps per Hour

OS:ShadowCalculation,
  {838460b4-9f32-4775-928c-76ba1d932133}, !- Handle
  PolygonClipping,                        !- Shading Calculation Method
  ,                                       !- Shading Calculation Update Frequency Method
  20,                                     !- Shading Calculation Update Frequency
  200,                                    !- Maximum Figures in Shadow Overlap Calculations
  ,                                       !- Polygon Clipping Algorithm
  512,                                    !- Pixel Counting Resolution
  ,                                       !- Sky Diffuse Modeling Algorithm
  No,                                     !- Output External Shading Calculation Results
  No,                                     !- Disable Self-Shading Within Shading Zone Groups
  No;                                     !- Disable Self-Shading From Shading Zone Groups to Other Zones

OS:SurfaceConvectionAlgorithm:Outside,
  {8422822b-84c2-4cf9-8ad3-d2379f4d3f56}, !- Handle
  DOE-2;                                  !- Algorithm

OS:SurfaceConvectionAlgorithm:Inside,
  {11f1c67d-fa3f-4fc2-b0bb-76260c53d22f}, !- Handle
  TARP;                                   !- Algorithm

OS:ZoneCapacitanceMultiplier:ResearchSpecial,
  {112780cf-9dd9-49b5-90b2-0b6716cefc78}, !- Handle
  7,                                      !- Temperature Capacity Multiplier
  15,                                     !- Humidity Capacity Multiplier
  ;                                       !- Carbon Dioxide Capacity Multiplier

OS:ConvergenceLimits,
  {9edc4e09-c7a4-4aeb-9b62-60606490f748}, !- Handle
  0;                                      !- Minimum System Timestep {minutes}

OS:RunPeriod,
  {d653af0a-7149-445e-986e-0420e63c4eb3}, !- Handle
  Run Period 1,                           !- Name
  1,                                      !- Begin Month
  1,                                      !- Begin Day of Month
  12,                                     !- End Month
  31,                                     !- End Day of Month
  ,                                       !- Use Weather File Holidays and Special Days
  ,                                       !- Use Weather File Daylight Saving Period
  ,                                       !- Apply Weekend Holiday Rule
  ,                                       !- Use Weather File Rain Indicators
  ,                                       !- Use Weather File Snow Indicators
  ;                                       !- Number of Times Runperiod to be Repeated

OS:PerformancePrecisionTradeoffs,
  {5b81e246-9366-499a-b979-e83ab85e6e4c}, !- Handle
  ,                                       !- Use Coil Direct Solutions
  CarrollMRT;                             !- Zone Radiant Exchange Algorithm

OS:WeatherFile,
  {8cb1d962-e4bf-41c4-bc38-676da825233e}, !- Handle
  Buffalo Niagara Intl Ap,                !- City
  NY,                                     !- State Province Region
  USA,                                    !- Country
  TMY3,                                   !- Data Source
  725280,                                 !- WMO Number
  42.93,                                  !- Latitude {deg}
  -78.73,                                 !- Longitude {deg}
  -5,                                     !- Time Zone {hr}
  215,                                    !- Elevation {m}
  /Users/nmoore/github/urbanopt-example-geojson-project/example_project/weather/USA_NY_Buffalo-Greater.Buffalo.Intl.AP.725280_TMY3.epw, !- Url
  6B50E0FF,                               !- Checksum
  ,                                       !- Start Date Actual Year
  Sunday;                                 !- Start Day of Week

OS:YearDescription,
  {09f375a9-b641-4c0d-abd7-9393592e1e02}, !- Handle
  2007,                                   !- Calendar Year
  ,                                       !- Day of Week for Start Day
  ;                                       !- Is Leap Year

OS:Site,
  {465b52ce-d9e1-4ac7-a365-353698b66e38}, !- Handle
  Buffalo Niagara Intl Ap_NY,             !- Name
  42.93,                                  !- Latitude {deg}
  -78.73,                                 !- Longitude {deg}
  -5,                                     !- Time Zone {hr}
  215,                                    !- Elevation {m}
  Suburbs,                                !- Terrain
  Yes;                                    !- Keep Site Location Information

OS:RunPeriodControl:DaylightSavingTime,
  {653b3ac7-eb15-4751-9b47-9b66228e92cf}, !- Handle
  Mar 12,                                 !- Start Date
  Nov 5;                                  !- End Date

OS:Site:GroundTemperature:Shallow,
  {506c8304-d6b1-4afe-be65-4ef06c1deba8}, !- Handle
  4.30207395723828,                       !- January Surface Ground Temperature {C}
  2.29327249652502,                       !- February Surface Ground Temperature {C}
  2.13240047156047,                       !- March Surface Ground Temperature {C}
  3.08567940719286,                       !- April Surface Ground Temperature {C}
  6.91256312497526,                       !- May Surface Ground Temperature {C}
  10.7216195949507,                       !- June Surface Ground Temperature {C}
  14.0238679822574,                       !- July Surface Ground Temperature {C}
  16.1157611184724,                       !- August Surface Ground Temperature {C}
  16.2934789303462,                       !- September Surface Ground Temperature {C}
  14.5920754632847,                       !- October Surface Ground Temperature {C}
  11.374036348653,                        !- November Surface Ground Temperature {C}
  7.68182621661674;                       !- December Surface Ground Temperature {C}

OS:ThermalZone,
  {3388807a-56de-46ff-aea9-a09107bd2166}, !- Handle
  conditioned space,                      !- Name
  1,                                      !- Multiplier
  ,                                       !- Ceiling Height {m}
  346.03186535424,                        !- Volume {m3}
  ,                                       !- Floor Area {m2}
  ,                                       !- Zone Inside Convection Algorithm
  ,                                       !- Zone Outside Convection Algorithm
  ,                                       !- Zone Conditioning Equipment List Name
  {aa2a8b4e-5cbf-4ad6-b997-27a1ca613cee}, !- Zone Air Inlet Port List
  {3bd957f7-e2e3-48f6-9d5b-2fdc9b35ca9c}, !- Zone Air Exhaust Port List
  {ec03780f-6b4c-433d-a4f6-76fb8debb34e}, !- Zone Air Node Name
  {cc222a39-6ddf-444a-a058-3c0a2fb6a9a8}, !- Zone Return Air Port List
  ,                                       !- Primary Daylighting Control Name
  ,                                       !- Fraction of Zone Controlled by Primary Daylighting Control
  ,                                       !- Secondary Daylighting Control Name
  ,                                       !- Fraction of Zone Controlled by Secondary Daylighting Control
  ,                                       !- Illuminance Map Name
  ,                                       !- Group Rendering Name
  {28fc350e-70dc-4c76-92bb-33336401e5a4}, !- Thermostat Name
  No;                                     !- Use Ideal Air Loads

OS:Node,
  {fe80f710-2d74-4b3a-adea-3ba0cf991d3c}, !- Handle
  Node 1,                                 !- Name
  {ec03780f-6b4c-433d-a4f6-76fb8debb34e}, !- Inlet Port
  ;                                       !- Outlet Port

OS:Connection,
  {ec03780f-6b4c-433d-a4f6-76fb8debb34e}, !- Handle
  {3388807a-56de-46ff-aea9-a09107bd2166}, !- Source Object
  11,                                     !- Outlet Port
  {fe80f710-2d74-4b3a-adea-3ba0cf991d3c}, !- Target Object
  2;                                      !- Inlet Port

OS:PortList,
  {aa2a8b4e-5cbf-4ad6-b997-27a1ca613cee}, !- Handle
  {3388807a-56de-46ff-aea9-a09107bd2166}, !- HVAC Component
  {cdb1383a-113a-4f8a-b5f0-ece60bce5b81}; !- Port 1

OS:PortList,
  {3bd957f7-e2e3-48f6-9d5b-2fdc9b35ca9c}, !- Handle
  {3388807a-56de-46ff-aea9-a09107bd2166}; !- HVAC Component

OS:PortList,
  {cc222a39-6ddf-444a-a058-3c0a2fb6a9a8}, !- Handle
  {3388807a-56de-46ff-aea9-a09107bd2166}, !- HVAC Component
  {d1c4bdee-9b1f-44ce-91fa-b947be6509b2}; !- Port 1

OS:Sizing:Zone,
  {721f7730-9c7e-4b8b-856d-e10f7e093b55}, !- Handle
  {3388807a-56de-46ff-aea9-a09107bd2166}, !- Zone or ZoneList Name
  SupplyAirTemperature,                   !- Zone Cooling Design Supply Air Temperature Input Method
  14,                                     !- Zone Cooling Design Supply Air Temperature {C}
  11.11,                                  !- Zone Cooling Design Supply Air Temperature Difference {deltaC}
  SupplyAirTemperature,                   !- Zone Heating Design Supply Air Temperature Input Method
  40,                                     !- Zone Heating Design Supply Air Temperature {C}
  11.11,                                  !- Zone Heating Design Supply Air Temperature Difference {deltaC}
  0.0085,                                 !- Zone Cooling Design Supply Air Humidity Ratio {kg-H2O/kg-air}
  0.008,                                  !- Zone Heating Design Supply Air Humidity Ratio {kg-H2O/kg-air}
  ,                                       !- Zone Heating Sizing Factor
  ,                                       !- Zone Cooling Sizing Factor
  DesignDay,                              !- Cooling Design Air Flow Method
  ,                                       !- Cooling Design Air Flow Rate {m3/s}
  ,                                       !- Cooling Minimum Air Flow per Zone Floor Area {m3/s-m2}
  ,                                       !- Cooling Minimum Air Flow {m3/s}
  ,                                       !- Cooling Minimum Air Flow Fraction
  DesignDay,                              !- Heating Design Air Flow Method
  ,                                       !- Heating Design Air Flow Rate {m3/s}
  ,                                       !- Heating Maximum Air Flow per Zone Floor Area {m3/s-m2}
  ,                                       !- Heating Maximum Air Flow {m3/s}
  ,                                       !- Heating Maximum Air Flow Fraction
  No,                                     !- Account for Dedicated Outdoor Air System
  NeutralSupplyAir,                       !- Dedicated Outdoor Air System Control Strategy
  autosize,                               !- Dedicated Outdoor Air Low Setpoint Temperature for Design {C}
  autosize,                               !- Dedicated Outdoor Air High Setpoint Temperature for Design {C}
  Sensible Load Only No Latent Load,      !- Zone Load Sizing Method
  HumidityRatioDifference,                !- Zone Latent Cooling Design Supply Air Humidity Ratio Input Method
  ,                                       !- Zone Dehumidification Design Supply Air Humidity Ratio {kgWater/kgDryAir}
  0.005,                                  !- Zone Cooling Design Supply Air Humidity Ratio Difference {kgWater/kgDryAir}
  HumidityRatioDifference,                !- Zone Latent Heating Design Supply Air Humidity Ratio Input Method
  ,                                       !- Zone Humidification Design Supply Air Humidity Ratio {kgWater/kgDryAir}
  0.005,                                  !- Zone Humidification Design Supply Air Humidity Ratio Difference {kgWater/kgDryAir}
  ,                                       !- Zone Humidistat Dehumidification Set Point Schedule Name
  ,                                       !- Zone Humidistat Humidification Set Point Schedule Name
  ,                                       !- Design Zone Air Distribution Effectiveness in Cooling Mode
  ,                                       !- Design Zone Air Distribution Effectiveness in Heating Mode
  ,                                       !- Design Zone Secondary Recirculation Fraction {dimensionless}
  ,                                       !- Design Minimum Zone Ventilation Efficiency {dimensionless}
  Coincident;                             !- Sizing Option

OS:ZoneHVAC:EquipmentList,
  {266f5fd1-5138-40c7-9da8-248959d7f72d}, !- Handle
  Zone HVAC Equipment List 1,             !- Name
  {3388807a-56de-46ff-aea9-a09107bd2166}, !- Thermal Zone
  ,                                       !- Load Distribution Scheme
  {510778cc-fa35-4bb4-b102-3669c2e40be8}, !- Zone Equipment 1
  1,                                      !- Zone Equipment Cooling Sequence 1
  1,                                      !- Zone Equipment Heating or No-Load Sequence 1
  {4c31ad91-97aa-4923-b857-6473d2b88ff3}, !- Zone Equipment Sequential Cooling Fraction Schedule Name 1
  {e63cf5d6-2e7e-4cea-b7eb-0da3db79af48}; !- Zone Equipment Sequential Heating Fraction Schedule Name 1

OS:AdditionalProperties,
  {f6bf8414-3624-42b2-a95c-299dac71997c}, !- Handle
  {3388807a-56de-46ff-aea9-a09107bd2166}, !- Object Name
  ObjectType,                             !- Feature Name 1
  String,                                 !- Feature Data Type 1
  conditioned space;                      !- Feature Value 1

OS:Space,
  {e3d4e2f2-82c5-4f7f-b05c-5c4862d78dd2}, !- Handle
  conditioned space 1,                    !- Name
  ,                                       !- Space Type Name
  ,                                       !- Default Construction Set Name
  ,                                       !- Default Schedule Set Name
  ,                                       !- Direction of Relative North {deg}
  ,                                       !- X Origin {m}
  ,                                       !- Y Origin {m}
  ,                                       !- Z Origin {m}
  ,                                       !- Building Story Name
  {3388807a-56de-46ff-aea9-a09107bd2166}, !- Thermal Zone Name
  ,                                       !- Part of Total Floor Area
  ,                                       !- Design Specification Outdoor Air Object Name
  ,                                       !- Building Unit Name
  346.03186535424;                        !- Volume {m3}

OS:Schedule:Ruleset,
  {0bb322cc-1180-4305-a7d9-2fd85f5f46c4}, !- Handle
  heating setpoint,                       !- Name
  {df684bbd-235a-46d6-ba8c-51e198108f9b}, !- Schedule Type Limits Name
  {b720df8d-c77f-4fae-a826-3d80678b68db}; !- Default Day Schedule Name

OS:Schedule:Day,
  {b720df8d-c77f-4fae-a826-3d80678b68db}, !- Handle
  heating setpoint default day,           !- Name
  {df684bbd-235a-46d6-ba8c-51e198108f9b}, !- Schedule Type Limits Name
  ,                                       !- Interpolate to Timestep
  24,                                     !- Hour 1
  0,                                      !- Minute 1
  0;                                      !- Value Until Time 1

OS:Schedule:Rule,
  {b6b833e7-6e10-45ae-b630-8c4d3bb1c792}, !- Handle
  heating setpoint allday rule,           !- Name
  {0bb322cc-1180-4305-a7d9-2fd85f5f46c4}, !- Schedule Ruleset Name
  0,                                      !- Rule Order
  {1886f5ee-d72a-4595-800b-c86d41f86fb2}, !- Day Schedule Name
  Yes,                                    !- Apply Sunday
  Yes,                                    !- Apply Monday
  Yes,                                    !- Apply Tuesday
  Yes,                                    !- Apply Wednesday
  Yes,                                    !- Apply Thursday
  Yes,                                    !- Apply Friday
  Yes,                                    !- Apply Saturday
  DateRange,                              !- Date Specification Type
  1,                                      !- Start Month
  1,                                      !- Start Day
  12,                                     !- End Month
  31;                                     !- End Day

OS:Schedule:Day,
  {1886f5ee-d72a-4595-800b-c86d41f86fb2}, !- Handle
  heating setpoint day,                   !- Name
  {df684bbd-235a-46d6-ba8c-51e198108f9b}, !- Schedule Type Limits Name
  ,                                       !- Interpolate to Timestep
  24,                                     !- Hour 1
  0,                                      !- Minute 1
  20;                                     !- Value Until Time 1

OS:Schedule:Ruleset,
  {9c833dd5-6fe4-4920-8297-29f0d57619e1}, !- Handle
  cooling setpoint,                       !- Name
  {df684bbd-235a-46d6-ba8c-51e198108f9b}, !- Schedule Type Limits Name
  {497a5f0d-1b8d-494f-b57d-377ea761bd1a}; !- Default Day Schedule Name

OS:Schedule:Day,
  {497a5f0d-1b8d-494f-b57d-377ea761bd1a}, !- Handle
  cooling setpoint default day,           !- Name
  {df684bbd-235a-46d6-ba8c-51e198108f9b}, !- Schedule Type Limits Name
  ,                                       !- Interpolate to Timestep
  24,                                     !- Hour 1
  0,                                      !- Minute 1
  0;                                      !- Value Until Time 1

OS:Schedule:Rule,
  {976a3262-535f-4b59-8440-9849c5cea975}, !- Handle
  cooling setpoint allday rule,           !- Name
  {9c833dd5-6fe4-4920-8297-29f0d57619e1}, !- Schedule Ruleset Name
  0,                                      !- Rule Order
  {39fb8e78-cdf3-4199-99f1-0ba5f2431509}, !- Day Schedule Name
  Yes,                                    !- Apply Sunday
  Yes,                                    !- Apply Monday
  Yes,                                    !- Apply Tuesday
  Yes,                                    !- Apply Wednesday
  Yes,                                    !- Apply Thursday
  Yes,                                    !- Apply Friday
  Yes,                                    !- Apply Saturday
  DateRange,                              !- Date Specification Type
  1,                                      !- Start Month
  1,                                      !- Start Day
  12,                                     !- End Month
  31;                                     !- End Day

OS:Schedule:Day,
  {39fb8e78-cdf3-4199-99f1-0ba5f2431509}, !- Handle
  cooling setpoint day,                   !- Name
  {df684bbd-235a-46d6-ba8c-51e198108f9b}, !- Schedule Type Limits Name
  ,                                       !- Interpolate to Timestep
  24,                                     !- Hour 1
  0,                                      !- Minute 1
  25.5555555555556;                       !- Value Until Time 1

OS:ThermostatSetpoint:DualSetpoint,
  {28fc350e-70dc-4c76-92bb-33336401e5a4}, !- Handle
  conditioned space temperature setpoint, !- Name
  {0bb322cc-1180-4305-a7d9-2fd85f5f46c4}, !- Heating Setpoint Temperature Schedule Name
  {9c833dd5-6fe4-4920-8297-29f0d57619e1}, !- Cooling Setpoint Temperature Schedule Name
  0;                                      !- Temperature Difference Between Cutout And Setpoint {deltaC}

OS:ScheduleTypeLimits,
  {df684bbd-235a-46d6-ba8c-51e198108f9b}, !- Handle
  Temperature,                            !- Name
  ,                                       !- Lower Limit Value
  ,                                       !- Upper Limit Value
  Continuous,                             !- Numeric Type
  Temperature;                            !- Unit Type

OS:Surface,
  {85fdadde-e557-40f0-a624-ffb7e88b890f}, !- Handle
  Wall1,                                  !- Name
  Wall,                                   !- Surface Type
  {8282a0b6-5e69-4548-8650-c88bf3a51906}, !- Construction Name
  {e3d4e2f2-82c5-4f7f-b05c-5c4862d78dd2}, !- Space Name
  Outdoors,                               !- Outside Boundary Condition
  ,                                       !- Outside Boundary Condition Object
  SunExposed,                             !- Sun Exposure
  WindExposed,                            !- Wind Exposure
  ,                                       !- View Factor to Ground
  ,                                       !- Number of Vertices
  -41.689655, 42.6186854, 0,              !- X,Y,Z Vertex 1 {m}
  -41.689655, 42.6186854, 2.4384,         !- X,Y,Z Vertex 2 {m}
  -29.775785, 42.6186854, 2.4384,         !- X,Y,Z Vertex 3 {m}
  -29.775785, 42.6186854, 0;              !- X,Y,Z Vertex 4 {m}

OS:AdditionalProperties,
  {a991552a-f24e-40bd-94ae-40e56b545a4a}, !- Handle
  {85fdadde-e557-40f0-a624-ffb7e88b890f}, !- Object Name
  Length,                                 !- Feature Name 1
  Double,                                 !- Feature Data Type 1
  39.087499999999999,                     !- Feature Value 1
  Azimuth,                                !- Feature Name 2
  Integer,                                !- Feature Data Type 2
  0,                                      !- Feature Value 2
  Tilt,                                   !- Feature Name 3
  Double,                                 !- Feature Data Type 3
  90,                                     !- Feature Value 3
  SurfaceType,                            !- Feature Name 4
  String,                                 !- Feature Data Type 4
  Wall;                                   !- Feature Value 4

OS:Material,
  {e92fab68-2157-4d32-867d-edd8a1abe99f}, !- Handle
  wood siding,                            !- Name
  Rough,                                  !- Roughness
  0.0254,                                 !- Thickness {m}
  0.1024175,                              !- Conductivity {W/m-K}
  544.68,                                 !- Density {kg/m3}
  1172.36,                                !- Specific Heat {J/kg-K}
  0.9,                                    !- Thermal Absorptance
  0.7,                                    !- Solar Absorptance
  0.7;                                    !- Visible Absorptance

OS:Material,
  {99984c7d-7f9d-468c-8647-48b633ce4377}, !- Handle
  osb sheathing 0.5 in.,                  !- Name
  Rough,                                  !- Roughness
  0.0127,                                 !- Thickness {m}
  0.1154577,                              !- Conductivity {W/m-K}
  512.64,                                 !- Density {kg/m3}
  1214.23,                                !- Specific Heat {J/kg-K}
  0.9,                                    !- Thermal Absorptance
  0.7,                                    !- Solar Absorptance
  0.7;                                    !- Visible Absorptance

OS:Material,
  {9a972ee8-16ca-4a56-b5d4-39c84cbb3cfa}, !- Handle
  wall stud and cavity,                   !- Name
  Rough,                                  !- Roughness
  0.1397,                                 !- Thickness {m}
  0.0929021674204099,                     !- Conductivity {W/m-K}
  139.0536,                               !- Density {kg/m3}
  1170.23755760369,                       !- Specific Heat {J/kg-K}
  0.9,                                    !- Thermal Absorptance
  0.7,                                    !- Solar Absorptance
  0.7;                                    !- Visible Absorptance

OS:Material,
  {563cc68d-a5d7-46ac-b10a-8156911bc011}, !- Handle
  gypsum board,                           !- Name
  Rough,                                  !- Roughness
  0.0127,                                 !- Thickness {m}
  0.1602906,                              !- Conductivity {W/m-K}
  801,                                    !- Density {kg/m3}
  837.4,                                  !- Specific Heat {J/kg-K}
  0.9,                                    !- Thermal Absorptance
  0.6,                                    !- Solar Absorptance
  0.6;                                    !- Visible Absorptance

OS:Construction,
  {8282a0b6-5e69-4548-8650-c88bf3a51906}, !- Handle
  Wall1 construction,                     !- Name
  ,                                       !- Surface Rendering Name
  {e92fab68-2157-4d32-867d-edd8a1abe99f}, !- Layer 1
  {99984c7d-7f9d-468c-8647-48b633ce4377}, !- Layer 2
  {9a972ee8-16ca-4a56-b5d4-39c84cbb3cfa}, !- Layer 3
  {563cc68d-a5d7-46ac-b10a-8156911bc011}; !- Layer 4

OS:Surface,
  {fbdc0694-3aa9-4af3-a605-3a8216d9f833}, !- Handle
  Wall2,                                  !- Name
  Wall,                                   !- Surface Type
  {6bba09f3-d509-4417-bcb7-540de875ab78}, !- Construction Name
  {e3d4e2f2-82c5-4f7f-b05c-5c4862d78dd2}, !- Space Name
  Outdoors,                               !- Outside Boundary Condition
  ,                                       !- Outside Boundary Condition Object
  SunExposed,                             !- Sun Exposure
  WindExposed,                            !- Wind Exposure
  ,                                       !- View Factor to Ground
  ,                                       !- Number of Vertices
  42.6186854, -36.6636554, 0,             !- X,Y,Z Vertex 1 {m}
  42.6186854, -36.6636554, 2.4384,        !- X,Y,Z Vertex 2 {m}
  42.6186854, -42.6186854, 2.4384,        !- X,Y,Z Vertex 3 {m}
  42.6186854, -42.6186854, 0;             !- X,Y,Z Vertex 4 {m}

OS:AdditionalProperties,
  {83e395b9-f4ae-4320-9e78-c5f4614b9f1e}, !- Handle
  {fbdc0694-3aa9-4af3-a605-3a8216d9f833}, !- Object Name
  Length,                                 !- Feature Name 1
  Double,                                 !- Feature Data Type 1
  19.537500000000001,                     !- Feature Value 1
  Azimuth,                                !- Feature Name 2
  Integer,                                !- Feature Data Type 2
  90,                                     !- Feature Value 2
  Tilt,                                   !- Feature Name 3
  Double,                                 !- Feature Data Type 3
  90,                                     !- Feature Value 3
  SurfaceType,                            !- Feature Name 4
  String,                                 !- Feature Data Type 4
  Wall;                                   !- Feature Value 4

OS:Construction,
  {6bba09f3-d509-4417-bcb7-540de875ab78}, !- Handle
  Wall2 construction,                     !- Name
  ,                                       !- Surface Rendering Name
  {e92fab68-2157-4d32-867d-edd8a1abe99f}, !- Layer 1
  {99984c7d-7f9d-468c-8647-48b633ce4377}, !- Layer 2
  {9a972ee8-16ca-4a56-b5d4-39c84cbb3cfa}, !- Layer 3
  {563cc68d-a5d7-46ac-b10a-8156911bc011}; !- Layer 4

OS:Surface,
  {fc883aee-afa0-4e8c-9ae3-c60a778da0c9}, !- Handle
  Wall3,                                  !- Name
  Wall,                                   !- Surface Type
  {e83c6b14-a634-45ae-8117-741df47b993c}, !- Construction Name
  {e3d4e2f2-82c5-4f7f-b05c-5c4862d78dd2}, !- Space Name
  Outdoors,                               !- Outside Boundary Condition
  ,                                       !- Outside Boundary Condition Object
  SunExposed,                             !- Sun Exposure
  WindExposed,                            !- Wind Exposure
  ,                                       !- View Factor to Ground
  ,                                       !- Number of Vertices
  -29.6238419715142, -42.6186854, 0,      !- X,Y,Z Vertex 1 {m}
  -29.6238419715142, -42.6186854, 2.4384, !- X,Y,Z Vertex 2 {m}
  -40.7757119715142, -42.6186854, 2.4384, !- X,Y,Z Vertex 3 {m}
  -40.7757119715142, -42.6186854, 0;      !- X,Y,Z Vertex 4 {m}

OS:AdditionalProperties,
  {052e3c83-dc7e-4bc9-b7c4-ca457b2c1dac}, !- Handle
  {fc883aee-afa0-4e8c-9ae3-c60a778da0c9}, !- Object Name
  Length,                                 !- Feature Name 1
  Double,                                 !- Feature Data Type 1
  36.587499999999999,                     !- Feature Value 1
  Azimuth,                                !- Feature Name 2
  Integer,                                !- Feature Data Type 2
  180,                                    !- Feature Value 2
  Tilt,                                   !- Feature Name 3
  Double,                                 !- Feature Data Type 3
  90,                                     !- Feature Value 3
  SurfaceType,                            !- Feature Name 4
  String,                                 !- Feature Data Type 4
  Wall;                                   !- Feature Value 4

OS:Construction,
  {e83c6b14-a634-45ae-8117-741df47b993c}, !- Handle
  Wall3 construction,                     !- Name
  ,                                       !- Surface Rendering Name
  {e92fab68-2157-4d32-867d-edd8a1abe99f}, !- Layer 1
  {99984c7d-7f9d-468c-8647-48b633ce4377}, !- Layer 2
  {9a972ee8-16ca-4a56-b5d4-39c84cbb3cfa}, !- Layer 3
  {563cc68d-a5d7-46ac-b10a-8156911bc011}; !- Layer 4

OS:Surface,
  {77e88db2-826e-4336-9aee-5f215383c74a}, !- Handle
  Wall4,                                  !- Name
  Wall,                                   !- Surface Type
  {d4fa50ca-9c2b-40d9-a49e-4d40ed155b2d}, !- Construction Name
  {e3d4e2f2-82c5-4f7f-b05c-5c4862d78dd2}, !- Space Name
  Outdoors,                               !- Outside Boundary Condition
  ,                                       !- Outside Boundary Condition Object
  SunExposed,                             !- Sun Exposure
  WindExposed,                            !- Wind Exposure
  ,                                       !- View Factor to Ground
  ,                                       !- Number of Vertices
  -42.6186854, 36.6636554, 0,             !- X,Y,Z Vertex 1 {m}
  -42.6186854, 36.6636554, 2.4384,        !- X,Y,Z Vertex 2 {m}
  -42.6186854, 42.6186854, 2.4384,        !- X,Y,Z Vertex 3 {m}
  -42.6186854, 42.6186854, 0;             !- X,Y,Z Vertex 4 {m}

OS:AdditionalProperties,
  {0151ea70-2668-44d9-ab34-b309e4901c1f}, !- Handle
  {77e88db2-826e-4336-9aee-5f215383c74a}, !- Object Name
  Length,                                 !- Feature Name 1