
OS:Version,
  {fe6e929c-fff8-4656-b228-1808abb198ef}, !- Handle
  3.10.0;                                 !- Version Identifier

OS:SimulationControl,
  {b09f14ff-931e-4826-8f5d-e3070d135508}, !- Handle
  ,                                       !- Do Zone Sizing Calculation
  ,                                       !- Do System Sizing Calculation
  ,                                       !- Do Plant Sizing Calculation
  No;                                     !- Run Simulation for Sizing Periods

OS:Timestep,
  {7e620143-517a-4172-b3a8-294b69aad091}, !- Handle
  1;                                      !- Number of Timesteps per Hour

OS:ShadowCalculation,
  {30bb53e7-02bc-4751-aa03-5ab6b197fbb6}, !- Handle
  PolygonClipping,                        !- Shading Calculation Method
  ,                                       !- Shading Calculation Update Frequency Method
  20,                                     !- Shading Calculation Update Frequency
  200,                                    !- Maximum Figures in Shadow Overlap Calculations
  ,                                       !- Polygon Clipping Algorithm
  512,                                    !- Pixel Counting Resolution
  ,                                       !- Sky Diffuse Modeling Algorithm
  No,                                     !- Output External Shading Calculation Results
  No,                                     !- Disable Self-Shading Within Shading Zone Groups
  No;                                     !- Disable Self-Shading From Shading Zone Groups to Other Zones

OS:SurfaceConvectionAlgorithm:Outside,
  {fbd50760-aa43-490c-b063-7e02441fe251}, !- Handle
  DOE-2;                                  !- Algorithm

OS:SurfaceConvectionAlgorithm:Inside,
  {e62cebf8-4edd-43af-ae0b-fabcfe47bc47}, !- Handle
  TARP;                                   !- Algorithm

OS:ZoneCapacitanceMultiplier:ResearchSpecial,
  {2b98f2d0-09ae-4806-84ae-8c5cabfad84d}, !- Handle
  7,                                      !- Temperature Capacity Multiplier
  15,                                     !- Humidity Capacity Multiplier
  ;                                       !- Carbon Dioxide Capacity Multiplier

OS:ConvergenceLimits,
  {f0d11b19-2497-4b1f-ac77-26930e282210}, !- Handle
  0;                                      !- Minimum System Timestep {minutes}

OS:RunPeriod,
  {b498d828-a254-4429-bbbf-d83e7e4ed7cd}, !- Handle
  Run Period 1,                           !- Name
  1,                                      !- Begin Month
  1,                                      !- Begin Day of Month
  12,                                     !- End Month
  31,                                     !- End Day of Month
  ,                                       !- Use Weather File Holidays and Special Days
  ,                                       !- Use Weather File Daylight Saving Period
  ,                                       !- Apply Weekend Holiday Rule
  ,                                       !- Use Weather File Rain Indicators
  ,                                       !- Use Weather File Snow Indicators
  ;                                       !- Number of Times Runperiod to be Repeated

OS:PerformancePrecisionTradeoffs,
  {47191bbd-f187-442b-911a-7e5f9290fd24}, !- Handle
  ,                                       !- Use Coil Direct Solutions
  CarrollMRT;                             !- Zone Radiant Exchange Algorithm

OS:WeatherFile,
  {8f086269-7475-4843-a8f9-158648e0d67c}, !- Handle
  Buffalo Niagara Intl Ap,                !- City
  NY,                                     !- State Province Region
  USA,                                    !- Country
  TMY3,                                   !- Data Source
  725280,                                 !- WMO Number
  42.93,                                  !- Latitude {deg}
  -78.73,                                 !- Longitude {deg}
  -5,                                     !- Time Zone {hr}
  215,                                    !- Elevation {m}
  /Users/nmoore/github/urbanopt-example-geojson-project/example_project/weather/USA_NY_Buffalo-Greater.Buffalo.Intl.AP.725280_TMY3.epw, !- Url
  6B50E0FF,                               !- Checksum
  ,                                       !- Start Date Actual Year
  Sunday;                                 !- Start Day of Week

OS:YearDescription,
  {5219a4f3-eba9-4221-8bd7-511ffd50f131}, !- Handle
  2007,                                   !- Calendar Year
  ,                                       !- Day of Week for Start Day
  ;                                       !- Is Leap Year

OS:Site,
  {ed70b3ae-15c1-490d-ad94-88d6f7e1fe8f}, !- Handle
  Buffalo Niagara Intl Ap_NY,             !- Name
  42.93,                                  !- Latitude {deg}
  -78.73,                                 !- Longitude {deg}
  -5,                                     !- Time Zone {hr}
  215,                                    !- Elevation {m}
  Suburbs,                                !- Terrain
  Yes;                                    !- Keep Site Location Information

OS:RunPeriodControl:DaylightSavingTime,
  {9cd3404f-9bcf-47e6-be48-feb948d592f6}, !- Handle
  Mar 12,                                 !- Start Date
  Nov 5;                                  !- End Date

OS:Site:GroundTemperature:Shallow,
  {7d461edc-8086-42a0-b4cf-657d2078261c}, !- Handle
  4.30207395723828,                       !- January Surface Ground Temperature {C}
  2.29327249652502,                       !- February Surface Ground Temperature {C}
  2.13240047156047,                       !- March Surface Ground Temperature {C}
  3.08567940719286,                       !- April Surface Ground Temperature {C}
  6.91256312497526,                       !- May Surface Ground Temperature {C}
  10.7216195949507,                       !- June Surface Ground Temperature {C}
  14.0238679822574,                       !- July Surface Ground Temperature {C}
  16.1157611184724,                       !- August Surface Ground Temperature {C}
  16.2934789303462,                       !- September Surface Ground Temperature {C}
  14.5920754632847,                       !- October Surface Ground Temperature {C}
  11.374036348653,                        !- November Surface Ground Temperature {C}
  7.68182621661674;                       !- December Surface Ground Temperature {C}

OS:ThermalZone,
  {eb00c05a-bde9-4287-b731-039a3913d6d9}, !- Handle
  conditioned space,                      !- Name
  1,                                      !- Multiplier
  ,                                       !- Ceiling Height {m}
  692.06373070848,                        !- Volume {m3}
  ,                                       !- Floor Area {m2}
  ,                                       !- Zone Inside Convection Algorithm
  ,                                       !- Zone Outside Convection Algorithm
  ,                                       !- Zone Conditioning Equipment List Name
  {c8c0317d-662a-4c61-b9e8-8b57b9385a8e}, !- Zone Air Inlet Port List
  {6e8de869-bda2-4a26-a72c-2eb161674e3f}, !- Zone Air Exhaust Port List
  {cecb38df-80fc-4280-a343-d9088584ca2b}, !- Zone Air Node Name
  {25158040-cd77-4734-abbd-472b46f86b98}, !- Zone Return Air Port List
  ,                                       !- Primary Daylighting Control Name
  ,                                       !- Fraction of Zone Controlled by Primary Daylighting Control
  ,                                       !- Secondary Daylighting Control Name
  ,                                       !- Fraction of Zone Controlled by Secondary Daylighting Control
  ,                                       !- Illuminance Map Name
  ,                                       !- Group Rendering Name
  {57e83b04-4d02-495e-ba61-a8f55454a11b}, !- Thermostat Name
  No;                                     !- Use Ideal Air Loads

OS:Node,
  {d88854f1-9d0f-4fae-8b34-d13e92fca407}, !- Handle
  Node 1,                                 !- Name
  {cecb38df-80fc-4280-a343-d9088584ca2b}, !- Inlet Port
  ;                                       !- Outlet Port

OS:Connection,
  {cecb38df-80fc-4280-a343-d9088584ca2b}, !- Handle
  {eb00c05a-bde9-4287-b731-039a3913d6d9}, !- Source Object
  11,                                     !- Outlet Port
  {d88854f1-9d0f-4fae-8b34-d13e92fca407}, !- Target Object
  2;                                      !- Inlet Port

OS:PortList,
  {c8c0317d-662a-4c61-b9e8-8b57b9385a8e}, !- Handle
  {eb00c05a-bde9-4287-b731-039a3913d6d9}, !- HVAC Component
  {4df1d6e2-ba7f-4b19-bcc6-1089be888641}; !- Port 1

OS:PortList,
  {6e8de869-bda2-4a26-a72c-2eb161674e3f}, !- Handle
  {eb00c05a-bde9-4287-b731-039a3913d6d9}; !- HVAC Component

OS:PortList,
  {25158040-cd77-4734-abbd-472b46f86b98}, !- Handle
  {eb00c05a-bde9-4287-b731-039a3913d6d9}, !- HVAC Component
  {8339c761-9fd1-4635-8df2-bc9bb418976d}; !- Port 1

OS:Sizing:Zone,
  {1ab7c061-bd0f-4699-9142-2d4747c04480}, !- Handle
  {eb00c05a-bde9-4287-b731-039a3913d6d9}, !- Zone or ZoneList Name
  SupplyAirTemperature,                   !- Zone Cooling Design Supply Air Temperature Input Method
  14,                                     !- Zone Cooling Design Supply Air Temperature {C}
  11.11,                                  !- Zone Cooling Design Supply Air Temperature Difference {deltaC}
  SupplyAirTemperature,                   !- Zone Heating Design Supply Air Temperature Input Method
  40,                                     !- Zone Heating Design Supply Air Temperature {C}
  11.11,                                  !- Zone Heating Design Supply Air Temperature Difference {deltaC}
  0.0085,                                 !- Zone Cooling Design Supply Air Humidity Ratio {kg-H2O/kg-air}
  0.008,                                  !- Zone Heating Design Supply Air Humidity Ratio {kg-H2O/kg-air}
  ,                                       !- Zone Heating Sizing Factor
  ,                                       !- Zone Cooling Sizing Factor
  DesignDay,                              !- Cooling Design Air Flow Method
  ,                                       !- Cooling Design Air Flow Rate {m3/s}
  ,                                       !- Cooling Minimum Air Flow per Zone Floor Area {m3/s-m2}
  ,                                       !- Cooling Minimum Air Flow {m3/s}
  ,                                       !- Cooling Minimum Air Flow Fraction
  DesignDay,                              !- Heating Design Air Flow Method
  ,                                       !- Heating Design Air Flow Rate {m3/s}
  ,                                       !- Heating Maximum Air Flow per Zone Floor Area {m3/s-m2}
  ,                                       !- Heating Maximum Air Flow {m3/s}
  ,                                       !- Heating Maximum Air Flow Fraction
  No,                                     !- Account for Dedicated Outdoor Air System
  NeutralSupplyAir,                       !- Dedicated Outdoor Air System Control Strategy
  autosize,                               !- Dedicated Outdoor Air Low Setpoint Temperature for Design {C}
  autosize,                               !- Dedicated Outdoor Air High Setpoint Temperature for Design {C}
  Sensible Load Only No Latent Load,      !- Zone Load Sizing Method
  HumidityRatioDifference,                !- Zone Latent Cooling Design Supply Air Humidity Ratio Input Method
  ,                                       !- Zone Dehumidification Design Supply Air Humidity Ratio {kgWater/kgDryAir}
  0.005,                                  !- Zone Cooling Design Supply Air Humidity Ratio Difference {kgWater/kgDryAir}
  HumidityRatioDifference,                !- Zone Latent Heating Design Supply Air Humidity Ratio Input Method
  ,                                       !- Zone Humidification Design Supply Air Humidity Ratio {kgWater/kgDryAir}
  0.005,                                  !- Zone Humidification Design Supply Air Humidity Ratio Difference {kgWater/kgDryAir}
  ,                                       !- Zone Humidistat Dehumidification Set Point Schedule Name
  ,                                       !- Zone Humidistat Humidification Set Point Schedule Name
  ,                                       !- Design Zone Air Distribution Effectiveness in Cooling Mode
  ,                                       !- Design Zone Air Distribution Effectiveness in Heating Mode
  ,                                       !- Design Zone Secondary Recirculation Fraction {dimensionless}
  ,                                       !- Design Minimum Zone Ventilation Efficiency {dimensionless}
  Coincident;                             !- Sizing Option

OS:ZoneHVAC:EquipmentList,
  {be21c967-0a26-4553-b592-4298469af977}, !- Handle
  Zone HVAC Equipment List 1,             !- Name
  {eb00c05a-bde9-4287-b731-039a3913d6d9}, !- Thermal Zone
  ,                                       !- Load Distribution Scheme
  {b41a05ba-ef6a-49c1-ba00-0ee5570b9989}, !- Zone Equipment 1
  1,                                      !- Zone Equipment Cooling Sequence 1
  1,                                      !- Zone Equipment Heating or No-Load Sequence 1
  {ed05135f-b8c2-4f89-9f62-aa4ec3a34f93}, !- Zone Equipment Sequential Cooling Fraction Schedule Name 1
  {76ab61aa-a2f5-4a16-8fa9-bbe1caaa25e0}; !- Zone Equipment Sequential Heating Fraction Schedule Name 1

OS:AdditionalProperties,
  {ab2d0f61-ff55-4a0f-a265-09719004fad6}, !- Handle
  {eb00c05a-bde9-4287-b731-039a3913d6d9}, !- Object Name
  ObjectType,                             !- Feature Name 1
  String,                                 !- Feature Data Type 1
  conditioned space;                      !- Feature Value 1

OS:Space,
  {0fbba38d-aa6b-4f27-a465-9aa3719cc3bc}, !- Handle
  conditioned space 1,                    !- Name
  ,                                       !- Space Type Name
  ,                                       !- Default Construction Set Name
  ,                                       !- Default Schedule Set Name
  ,                                       !- Direction of Relative North {deg}
  ,                                       !- X Origin {m}
  ,                                       !- Y Origin {m}
  ,                                       !- Z Origin {m}
  ,                                       !- Building Story Name
  {eb00c05a-bde9-4287-b731-039a3913d6d9}, !- Thermal Zone Name
  ,                                       !- Part of Total Floor Area
  ,                                       !- Design Specification Outdoor Air Object Name
  ,                                       !- Building Unit Name
  692.06373070848;                        !- Volume {m3}

OS:Schedule:Ruleset,
  {c495a60a-963c-44ae-af91-544e75f92876}, !- Handle
  heating setpoint,                       !- Name
  {768748f6-3fc9-4663-b3c9-1f876705c8e2}, !- Schedule Type Limits Name
  {4d9d02ac-6cb6-4d4a-8d85-2439421cf99b}; !- Default Day Schedule Name

OS:Schedule:Day,
  {4d9d02ac-6cb6-4d4a-8d85-2439421cf99b}, !- Handle
  heating setpoint default day,           !- Name
  {768748f6-3fc9-4663-b3c9-1f876705c8e2}, !- Schedule Type Limits Name
  ,                                       !- Interpolate to Timestep
  24,                                     !- Hour 1
  0,                                      !- Minute 1
  0;                                      !- Value Until Time 1

OS:Schedule:Rule,
  {46b5efdc-2e8f-464b-8dad-d7bed8905070}, !- Handle
  heating setpoint allday rule,           !- Name
  {c495a60a-963c-44ae-af91-544e75f92876}, !- Schedule Ruleset Name
  0,                                      !- Rule Order
  {b7135990-6cd3-4720-b1e5-3f40f5a7dc8d}, !- Day Schedule Name
  Yes,                                    !- Apply Sunday
  Yes,                                    !- Apply Monday
  Yes,                                    !- Apply Tuesday
  Yes,                                    !- Apply Wednesday
  Yes,                                    !- Apply Thursday
  Yes,                                    !- Apply Friday
  Yes,                                    !- Apply Saturday
  DateRange,                              !- Date Specification Type
  1,                                      !- Start Month
  1,                                      !- Start Day
  12,                                     !- End Month
  31;                                     !- End Day

OS:Schedule:Day,
  {b7135990-6cd3-4720-b1e5-3f40f5a7dc8d}, !- Handle
  heating setpoint day,                   !- Name
  {768748f6-3fc9-4663-b3c9-1f876705c8e2}, !- Schedule Type Limits Name
  ,                                       !- Interpolate to Timestep
  24,                                     !- Hour 1
  0,                                      !- Minute 1
  20;                                     !- Value Until Time 1

OS:Schedule:Ruleset,
  {61049d59-e15a-4282-b37e-2463eea2fcd7}, !- Handle
  cooling setpoint,                       !- Name
  {768748f6-3fc9-4663-b3c9-1f876705c8e2}, !- Schedule Type Limits Name
  {b98c74c1-35fb-4c0e-a445-a35ec50006ce}; !- Default Day Schedule Name

OS:Schedule:Day,
  {b98c74c1-35fb-4c0e-a445-a35ec50006ce}, !- Handle
  cooling setpoint default day,           !- Name
  {768748f6-3fc9-4663-b3c9-1f876705c8e2}, !- Schedule Type Limits Name
  ,                                       !- Interpolate to Timestep
  24,                                     !- Hour 1
  0,                                      !- Minute 1
  0;                                      !- Value Until Time 1

OS:Schedule:Rule,
  {da5645b6-79a1-461b-b71c-5b0d3049149c}, !- Handle
  cooling setpoint allday rule,           !- Name
  {61049d59-e15a-4282-b37e-2463eea2fcd7}, !- Schedule Ruleset Name
  0,                                      !- Rule Order
  {07826100-c542-44a6-9c8d-efea2dfd31a9}, !- Day Schedule Name
  Yes,                                    !- Apply Sunday
  Yes,                                    !- Apply Monday
  Yes,                                    !- Apply Tuesday
  Yes,                                    !- Apply Wednesday
  Yes,                                    !- Apply Thursday
  Yes,                                    !- Apply Friday
  Yes,                                    !- Apply Saturday
  DateRange,                              !- Date Specification Type
  1,                                      !- Start Month
  1,                                      !- Start Day
  12,                                     !- End Month
  31;                                     !- End Day

OS:Schedule:Day,
  {07826100-c542-44a6-9c8d-efea2dfd31a9}, !- Handle
  cooling setpoint day,                   !- Name
  {768748f6-3fc9-4663-b3c9-1f876705c8e2}, !- Schedule Type Limits Name
  ,                                       !- Interpolate to Timestep
  24,                                     !- Hour 1
  0,                                      !- Minute 1
  25.5555555555556;                       !- Value Until Time 1

OS:ThermostatSetpoint:DualSetpoint,
  {57e83b04-4d02-495e-ba61-a8f55454a11b}, !- Handle
  conditioned space temperature setpoint, !- Name
  {c495a60a-963c-44ae-af91-544e75f92876}, !- Heating Setpoint Temperature Schedule Name
  {61049d59-e15a-4282-b37e-2463eea2fcd7}, !- Cooling Setpoint Temperature Schedule Name
  0;                                      !- Temperature Difference Between Cutout And Setpoint {deltaC}

OS:ScheduleTypeLimits,
  {768748f6-3fc9-4663-b3c9-1f876705c8e2}, !- Handle
  Temperature,                            !- Name
  ,                                       !- Lower Limit Value
  ,                                       !- Upper Limit Value
  Continuous,                             !- Numeric Type
  Temperature;                            !- Unit Type

OS:Surface,
  {3d124585-3787-4491-9650-1b36568ecfb7}, !- Handle
  Roof1,                                  !- Name
  RoofCeiling,                            !- Surface Type
  {cd5f54b2-49a3-48f0-9bbc-5037c6000301}, !- Construction Name
  {81ec23a5-f224-4463-8f6a-3ff867953b75}, !- Space Name
  Outdoors,                               !- Outside Boundary Condition
  ,                                       !- Outside Boundary Condition Object
  SunExposed,                             !- Sun Exposure
  WindExposed,                            !- Wind Exposure
  ,                                       !- View Factor to Ground
  ,                                       !- Number of Vertices
  -26.9347048849634, 58.0557891618865, 2.4384, !- X,Y,Z Vertex 1 {m}
  -26.9347048849634, 46.7895631136661, 8.0715130241102, !- X,Y,Z Vertex 2 {m}
  -14.3386812381136, 46.7895631136661, 8.0715130241102, !- X,Y,Z Vertex 3 {m}
  -14.3386812381136, 58.0557891618865, 2.4384; !- X,Y,Z Vertex 4 {m}

OS:AdditionalProperties,
  {24f66f80-2798-4a2c-a914-d97d6343395b}, !- Handle
  {3d124585-3787-4491-9650-1b36568ecfb7}, !- Object Name
  Length,                                 !- Feature Name 1
  Double,                                 !- Feature Data Type 1
  41.325536899113608,                     !- Feature Value 1
  Width,                                  !- Feature Name 2
  Double,                                 !- Feature Data Type 2
  41.325536899113601,                     !- Feature Value 2
  Azimuth,                                !- Feature Name 3
  Integer,                                !- Feature Data Type 3
  0,                                      !- Feature Value 3
  Tilt,                                   !- Feature Name 4
  Double,                                 !- Feature Data Type 4
  0.5,                                    !- Feature Value 4
  SurfaceType,                            !- Feature Name 5
  String,                                 !- Feature Data Type 5
  Roof;                                   !- Feature Value 5

OS:ThermalZone,
  {b5c5dc39-4a80-4697-b716-3d6058e1384d}, !- Handle
  attic - vented,                         !- Name
  1,                                      !- Multiplier
  ,                                       !- Ceiling Height {m}
  356.390921899745,                       !- Volume {m3}
  ,                                       !- Floor Area {m2}
  ,                                       !- Zone Inside Convection Algorithm
  ,                                       !- Zone Outside Convection Algorithm
  ,                                       !- Zone Conditioning Equipment List Name
  {52f0925f-ef7f-462c-b45a-58bf844b2175}, !- Zone Air Inlet Port List
  {7dbb2ac0-0b88-47e5-bbee-a8e34ca95fd6}, !- Zone Air Exhaust Port List
  {3004023e-a2d2-4bf2-b736-828806f0494e}, !- Zone Air Node Name
  {3d421baa-6451-43e2-8f2a-50d0367164d1}, !- Zone Return Air Port List
  ,                                       !- Primary Daylighting Control Name
  ,                                       !- Fraction of Zone Controlled by Primary Daylighting Control
  ,                                       !- Secondary Daylighting Control Name
  ,                                       !- Fraction of Zone Controlled by Secondary Daylighting Control
  ,                                       !- Illuminance Map Name
  ,                                       !- Group Rendering Name
  ,                                       !- Thermostat Name
  No;                                     !- Use Ideal Air Loads

OS:Node,
  {955b07ba-9637-40a0-b9ef-caddc719ecb5}, !- Handle
  Node 2,                                 !- Name
  {3004023e-a2d2-4bf2-b736-828806f0494e}, !- Inlet Port
  ;                                       !- Outlet Port

OS:Connection,
  {3004023e-a2d2-4bf2-b736-828806f0494e}, !- Handle
  {b5c5dc39-4a80-4697-b716-3d6058e1384d}, !- Source Object
  11,                                     !- Outlet Port
  {955b07ba-9637-40a0-b9ef-caddc719ecb5}, !- Target Object
  2;                                      !- Inlet Port

OS:PortList,
  {52f0925f-ef7f-462c-b45a-58bf844b2175}, !- Handle
  {b5c5dc39-4a80-4697-b716-3d6058e1384d}; !- HVAC Component

OS:PortList,
  {7dbb2ac0-0b88-47e5-bbee-a8e34ca95fd6}, !- Handle
  {b5c5dc39-4a80-4697-b716-3d6058e1384d}; !- HVAC Component

OS:PortList,
  {3d421baa-6451-43e2-8f2a-50d0367164d1}, !- Handle
  {b5c5dc39-4a80-4697-b716-3d6058e1384d}; !- HVAC Component

OS:Sizing:Zone,
  {7fa5998a-bc8e-4680-bbd8-bc8e46fd31d6}, !- Handle
  {b5c5dc39-4a80-4697-b716-3d6058e1384d}, !- Zone or ZoneList Name
  SupplyAirTemperature,                   !- Zone Cooling Design Supply Air Temperature Input Method
  14,                                     !- Zone Cooling Design Supply Air Temperature {C}
  11.11,                                  !- Zone Cooling Design Supply Air Temperature Difference {deltaC}
  SupplyAirTemperature,                   !- Zone Heating Design Supply Air Temperature Input Method
  40,                                     !- Zone Heating Design Supply Air Temperature {C}
  11.11,                                  !- Zone Heating Design Supply Air Temperature Difference {deltaC}
  0.0085,                                 !- Zone Cooling Design Supply Air Humidity Ratio {kg-H2O/kg-air}
  0.008,                                  !- Zone Heating Design Supply Air Humidity Ratio {kg-H2O/kg-air}
  ,                                       !- Zone Heating Sizing Factor
  ,                                       !- Zone Cooling Sizing Factor
  DesignDay,                              !- Cooling Design Air Flow Method
  ,                                       !- Cooling Design Air Flow Rate {m3/s}
  ,                                       !- Cooling Minimum Air Flow per Zone Floor Area {m3/s-m2}
  ,                                       !- Cooling Minimum Air Flow {m3/s}
  ,                                       !- Cooling Minimum Air Flow Fraction
  DesignDay,                              !- Heating Design Air Flow Method
  ,                                       !- Heating Design Air Flow Rate {m3/s}
  ,                                       !- Heating Maximum Air Flow per Zone Floor Area {m3/s-m2}
  ,                                       !- Heating Maximum Air Flow {m3/s}
  ,                                       !- Heating Maximum Air Flow Fraction
  No,                                     !- Account for Dedicated Outdoor Air System
  NeutralSupplyAir,                       !- Dedicated Outdoor Air System Control Strategy
  autosize,                               !- Dedicated Outdoor Air Low Setpoint Temperature for Design {C}
  autosize,                               !- Dedicated Outdoor Air High Setpoint Temperature for Design {C}
  Sensible Load Only No Latent Load,      !- Zone Load Sizing Method
  HumidityRatioDifference,                !- Zone Latent Cooling Design Supply Air Humidity Ratio Input Method
  ,                                       !- Zone Dehumidification Design Supply Air Humidity Ratio {kgWater/kgDryAir}
  0.005,                                  !- Zone Cooling Design Supply Air Humidity Ratio Difference {kgWater/kgDryAir}
  HumidityRatioDifference,                !- Zone Latent Heating Design Supply Air Humidity Ratio Input Method
  ,                                       !- Zone Humidification Design Supply Air Humidity Ratio {kgWater/kgDryAir}
  0.005,                                  !- Zone Humidification Design Supply Air Humidity Ratio Difference {kgWater/kgDryAir}
  ,                                       !- Zone Humidistat Dehumidification Set Point Schedule Name
  ,                                       !- Zone Humidistat Humidification Set Point Schedule Name
  ,                                       !- Design Zone Air Distribution Effectiveness in Cooling Mode
  ,                                       !- Design Zone Air Distribution Effectiveness in Heating Mode
  ,                                       !- Design Zone Secondary Recirculation Fraction {dimensionless}
  ,                                       !- Design Minimum Zone Ventilation Efficiency {dimensionless}
  Coincident;                             !- Sizing Option

OS:ZoneHVAC:EquipmentList,
  {12fc55bb-609d-4e8a-953f-f2d657edf0a8}, !- Handle
  Zone HVAC Equipment List 2,             !- Name
  {b5c5dc39-4a80-4697-b716-3d6058e1384d}; !- Thermal Zone

OS:AdditionalProperties,
  {c68a28af-4e67-4ff7-b1f5-9d1f3d19d240}, !- Handle
  {b5c5dc39-4a80-4697-b716-3d6058e1384d}, !- Object Name
  ObjectType,                             !- Feature Name 1
  String,                                 !- Feature Data Type 1
  attic - vented;                         !- Feature Value 1

OS:Space,
  {81ec23a5-f224-4463-8f6a-3ff867953b75}, !- Handle
  attic - vented 1,                       !- Name
  ,                                       !- Space Type Name
  ,                                       !- Default Construction Set Name
  ,                                       !- Default Schedule Set Name
  ,                                       !- Direction of Relative North {deg}
  ,                                       !- X Origin {m}
  ,                                       !- Y Origin {m}
  ,                                       !- Z Origin {m}
  ,                                       !- Building Story Name
  {b5c5dc39-4a80-4697-b716-3d6058e1384d}, !- Thermal Zone Name
  ,                                       !- Part of Total Floor Area
  ,                                       !- Design Specification Outdoor Air Object Name
  ,                                       !- Building Unit Name
  356.390921899745;                       !- Volume {m3}

OS:Material,
  {d855d271-930e-46db-80a7-b90832d3615e}, !- Handle
  asphalt or fiberglass shingles,         !- Name
  Rough,                                  !- Roughness
  0.00635,                                !- Thickness {m}
  0.162714,                               !- Conductivity {W/m-K}
  1121.4,                                 !- Density {kg/m3}
  1465.45,                                !- Specific Heat {J/kg-K}
  0.9,                                    !- Thermal Absorptance
  0.85,                                   !- Solar Absorptance