
OS:Version,
  {8ca91227-f982-4ec1-9c9a-9fbf355b5a61}, !- Handle
  3.9.0;                                  !- Version Identifier

OS:SimulationControl,
  {8df63647-1052-49cd-819f-0ccef71d80b6}, !- Handle
  ,                                       !- Do Zone Sizing Calculation
  ,                                       !- Do System Sizing Calculation
  ,                                       !- Do Plant Sizing Calculation
  No;                                     !- Run Simulation for Sizing Periods

OS:Timestep,
  {1538db78-703e-42d2-b86f-d59dcc786055}, !- Handle
  1;                                      !- Number of Timesteps per Hour

OS:ShadowCalculation,
  {16b14bc4-3d13-4786-ab48-6d580d99c789}, !- Handle
  PolygonClipping,                        !- Shading Calculation Method
  ,                                       !- Shading Calculation Update Frequency Method
  20,                                     !- Shading Calculation Update Frequency
  200,                                    !- Maximum Figures in Shadow Overlap Calculations
  ,                                       !- Polygon Clipping Algorithm
  512,                                    !- Pixel Counting Resolution
  ,                                       !- Sky Diffuse Modeling Algorithm
  No,                                     !- Output External Shading Calculation Results
  No,                                     !- Disable Self-Shading Within Shading Zone Groups
  No;                                     !- Disable Self-Shading From Shading Zone Groups to Other Zones

OS:SurfaceConvectionAlgorithm:Outside,
  {c6f7e50b-cc6d-441f-823f-efb9e9220190}, !- Handle
  DOE-2;                                  !- Algorithm

OS:SurfaceConvectionAlgorithm:Inside,
  {a406b897-224a-4de6-a8db-b47907694e7d}, !- Handle
  TARP;                                   !- Algorithm

OS:ZoneCapacitanceMultiplier:ResearchSpecial,
  {c0f581a7-602d-4c1f-ba27-ca15e28f43b6}, !- Handle
  7,                                      !- Temperature Capacity Multiplier
  15,                                     !- Humidity Capacity Multiplier
  ;                                       !- Carbon Dioxide Capacity Multiplier

OS:ConvergenceLimits,
  {cb2acbb9-0d92-420e-ba58-ae7a9ca09483}, !- Handle
  0;                                      !- Minimum System Timestep {minutes}

OS:RunPeriod,
  {f8f8a19e-e65e-4ff5-8374-131571749c76}, !- Handle
  Run Period 1,                           !- Name
  1,                                      !- Begin Month
  1,                                      !- Begin Day of Month
  12,                                     !- End Month
  31,                                     !- End Day of Month
  ,                                       !- Use Weather File Holidays and Special Days
  ,                                       !- Use Weather File Daylight Saving Period
  ,                                       !- Apply Weekend Holiday Rule
  ,                                       !- Use Weather File Rain Indicators
  ,                                       !- Use Weather File Snow Indicators
  ;                                       !- Number of Times Runperiod to be Repeated

OS:PerformancePrecisionTradeoffs,
  {36376a1a-1010-4bec-98a8-8ce4b26ebf54}, !- Handle
  ,                                       !- Use Coil Direct Solutions
  CarrollMRT;                             !- Zone Radiant Exchange Algorithm

OS:WeatherFile,
  {19bc854f-49ae-4bce-943a-0504f69141f6}, !- Handle
  Buffalo Niagara Intl Ap,                !- City
  NY,                                     !- State Province Region
  USA,                                    !- Country
  TMY3,                                   !- Data Source
  725280,                                 !- WMO Number
  42.93,                                  !- Latitude {deg}
  -78.73,                                 !- Longitude {deg}
  -5,                                     !- Time Zone {hr}
  215,                                    !- Elevation {m}
  /Users/nmoore/github/urbanopt-example-geojson-project/example_project/weather/USA_NY_Buffalo-Greater.Buffalo.Intl.AP.725280_TMY3.epw, !- Url
  6B50E0FF,                               !- Checksum
  ,                                       !- Start Date Actual Year
  Sunday;                                 !- Start Day of Week

OS:YearDescription,
  {ca012dbf-f934-4b70-8a01-0b6e43047d4b}, !- Handle
  2007,                                   !- Calendar Year
  ,                                       !- Day of Week for Start Day
  ;                                       !- Is Leap Year

OS:Site,
  {b8a5e6bb-33a2-4a1f-aa88-5556188f172f}, !- Handle
  Buffalo Niagara Intl Ap_NY,             !- Name
  42.93,                                  !- Latitude {deg}
  -78.73,                                 !- Longitude {deg}
  -5,                                     !- Time Zone {hr}
  215,                                    !- Elevation {m}
  Suburbs,                                !- Terrain
  Yes;                                    !- Keep Site Location Information

OS:RunPeriodControl:DaylightSavingTime,
  {0ee53f4e-b1e4-4005-b0a9-6678a4a4dab8}, !- Handle
  Mar 12,                                 !- Start Date
  Nov 5;                                  !- End Date

OS:Site:GroundTemperature:Shallow,
  {e739418d-e3bf-4fd8-9dd2-7cdeb85b72fd}, !- Handle
  4.30207395723828,                       !- January Surface Ground Temperature {C}
  2.29327249652502,                       !- February Surface Ground Temperature {C}
  2.13240047156047,                       !- March Surface Ground Temperature {C}
  3.08567940719286,                       !- April Surface Ground Temperature {C}
  6.91256312497526,                       !- May Surface Ground Temperature {C}
  10.7216195949507,                       !- June Surface Ground Temperature {C}
  14.0238679822574,                       !- July Surface Ground Temperature {C}
  16.1157611184724,                       !- August Surface Ground Temperature {C}
  16.2934789303462,                       !- September Surface Ground Temperature {C}
  14.5920754632847,                       !- October Surface Ground Temperature {C}
  11.374036348653,                        !- November Surface Ground Temperature {C}
  7.68182621661674;                       !- December Surface Ground Temperature {C}

OS:ThermalZone,
  {a92e8adc-89b1-4d8b-8718-0a4e22d84f9d}, !- Handle
  conditioned space,                      !- Name
  1,                                      !- Multiplier
  ,                                       !- Ceiling Height {m}
  692.06373070848,                        !- Volume {m3}
  ,                                       !- Floor Area {m2}
  ,                                       !- Zone Inside Convection Algorithm
  ,                                       !- Zone Outside Convection Algorithm
  ,                                       !- Zone Conditioning Equipment List Name
  {336bafa2-4159-43f6-b21f-be74ebf61554}, !- Zone Air Inlet Port List
  {2bdd7005-5a12-4b37-8540-f0d5ec8dd1ed}, !- Zone Air Exhaust Port List
  {95bbaf70-44c4-4895-a305-5c01408df480}, !- Zone Air Node Name
  {2c32c880-47fe-482c-b899-a1274085bcf3}, !- Zone Return Air Port List
  ,                                       !- Primary Daylighting Control Name
  ,                                       !- Fraction of Zone Controlled by Primary Daylighting Control
  ,                                       !- Secondary Daylighting Control Name
  ,                                       !- Fraction of Zone Controlled by Secondary Daylighting Control
  ,                                       !- Illuminance Map Name
  ,                                       !- Group Rendering Name
  {b9ea6d72-24c6-4c31-984d-c67cee505389}, !- Thermostat Name
  No;                                     !- Use Ideal Air Loads

OS:Node,
  {3b39d5fc-3c90-4376-a723-75f8369d31fa}, !- Handle
  Node 1,                                 !- Name
  {95bbaf70-44c4-4895-a305-5c01408df480}, !- Inlet Port
  ;                                       !- Outlet Port

OS:Connection,
  {95bbaf70-44c4-4895-a305-5c01408df480}, !- Handle
  {a92e8adc-89b1-4d8b-8718-0a4e22d84f9d}, !- Source Object
  11,                                     !- Outlet Port
  {3b39d5fc-3c90-4376-a723-75f8369d31fa}, !- Target Object
  2;                                      !- Inlet Port

OS:PortList,
  {336bafa2-4159-43f6-b21f-be74ebf61554}, !- Handle
  {a92e8adc-89b1-4d8b-8718-0a4e22d84f9d}, !- HVAC Component
  {b1b6ae64-9b9c-4701-9002-4e14b6617b08}; !- Port 1

OS:PortList,
  {2bdd7005-5a12-4b37-8540-f0d5ec8dd1ed}, !- Handle
  {a92e8adc-89b1-4d8b-8718-0a4e22d84f9d}; !- HVAC Component

OS:PortList,
  {2c32c880-47fe-482c-b899-a1274085bcf3}, !- Handle
  {a92e8adc-89b1-4d8b-8718-0a4e22d84f9d}, !- HVAC Component
  {d5f68f89-c565-42c0-a5ad-a76b5ace646c}; !- Port 1

OS:Sizing:Zone,
  {3ac83c1b-f9aa-44bc-8039-c3647886e59f}, !- Handle
  {a92e8adc-89b1-4d8b-8718-0a4e22d84f9d}, !- Zone or ZoneList Name
  SupplyAirTemperature,                   !- Zone Cooling Design Supply Air Temperature Input Method
  14,                                     !- Zone Cooling Design Supply Air Temperature {C}
  11.11,                                  !- Zone Cooling Design Supply Air Temperature Difference {deltaC}
  SupplyAirTemperature,                   !- Zone Heating Design Supply Air Temperature Input Method
  40,                                     !- Zone Heating Design Supply Air Temperature {C}
  11.11,                                  !- Zone Heating Design Supply Air Temperature Difference {deltaC}
  0.0085,                                 !- Zone Cooling Design Supply Air Humidity Ratio {kg-H2O/kg-air}
  0.008,                                  !- Zone Heating Design Supply Air Humidity Ratio {kg-H2O/kg-air}
  ,                                       !- Zone Heating Sizing Factor
  ,                                       !- Zone Cooling Sizing Factor
  DesignDay,                              !- Cooling Design Air Flow Method
  ,                                       !- Cooling Design Air Flow Rate {m3/s}
  ,                                       !- Cooling Minimum Air Flow per Zone Floor Area {m3/s-m2}
  ,                                       !- Cooling Minimum Air Flow {m3/s}
  ,                                       !- Cooling Minimum Air Flow Fraction
  DesignDay,                              !- Heating Design Air Flow Method
  ,                                       !- Heating Design Air Flow Rate {m3/s}
  ,                                       !- Heating Maximum Air Flow per Zone Floor Area {m3/s-m2}
  ,                                       !- Heating Maximum Air Flow {m3/s}
  ,                                       !- Heating Maximum Air Flow Fraction
  No,                                     !- Account for Dedicated Outdoor Air System
  NeutralSupplyAir,                       !- Dedicated Outdoor Air System Control Strategy
  autosize,                               !- Dedicated Outdoor Air Low Setpoint Temperature for Design {C}
  autosize,                               !- Dedicated Outdoor Air High Setpoint Temperature for Design {C}
  Sensible Load Only No Latent Load,      !- Zone Load Sizing Method
  HumidityRatioDifference,                !- Zone Latent Cooling Design Supply Air Humidity Ratio Input Method
  ,                                       !- Zone Dehumidification Design Supply Air Humidity Ratio {kgWater/kgDryAir}
  0.005,                                  !- Zone Cooling Design Supply Air Humidity Ratio Difference {kgWater/kgDryAir}
  HumidityRatioDifference,                !- Zone Latent Heating Design Supply Air Humidity Ratio Input Method
  ,                                       !- Zone Humidification Design Supply Air Humidity Ratio {kgWater/kgDryAir}
  0.005,                                  !- Zone Humidification Design Supply Air Humidity Ratio Difference {kgWater/kgDryAir}
  ,                                       !- Zone Humidistat Dehumidification Set Point Schedule Name
  ,                                       !- Zone Humidistat Humidification Set Point Schedule Name
  ,                                       !- Design Zone Air Distribution Effectiveness in Cooling Mode
  ,                                       !- Design Zone Air Distribution Effectiveness in Heating Mode
  ,                                       !- Design Zone Secondary Recirculation Fraction {dimensionless}
  ,                                       !- Design Minimum Zone Ventilation Efficiency {dimensionless}
  Coincident;                             !- Sizing Option

OS:ZoneHVAC:EquipmentList,
  {816550e2-6cc7-4905-b043-278dc1e752b7}, !- Handle
  Zone HVAC Equipment List 1,             !- Name
  {a92e8adc-89b1-4d8b-8718-0a4e22d84f9d}, !- Thermal Zone
  ,                                       !- Load Distribution Scheme
  {a567edb1-4d20-4b71-a752-e7ff69505043}, !- Zone Equipment 1
  1,                                      !- Zone Equipment Cooling Sequence 1
  1,                                      !- Zone Equipment Heating or No-Load Sequence 1
  {5dc58670-26b7-45c4-85a7-06f42f1d1209}, !- Zone Equipment Sequential Cooling Fraction Schedule Name 1
  {3d31738e-3b54-44da-a11f-d2b1644aa425}; !- Zone Equipment Sequential Heating Fraction Schedule Name 1

OS:AdditionalProperties,
  {a7241405-e26f-4e71-a400-c16f8676732d}, !- Handle
  {a92e8adc-89b1-4d8b-8718-0a4e22d84f9d}, !- Object Name
  ObjectType,                             !- Feature Name 1
  String,                                 !- Feature Data Type 1
  conditioned space;                      !- Feature Value 1

OS:Space,
  {5c3f32d5-cafa-4531-ab51-fd6f53ae4aaf}, !- Handle
  conditioned space 1,                    !- Name
  ,                                       !- Space Type Name
  ,                                       !- Default Construction Set Name
  ,                                       !- Default Schedule Set Name
  ,                                       !- Direction of Relative North {deg}
  ,                                       !- X Origin {m}
  ,                                       !- Y Origin {m}
  ,                                       !- Z Origin {m}
  ,                                       !- Building Story Name
  {a92e8adc-89b1-4d8b-8718-0a4e22d84f9d}, !- Thermal Zone Name
  ,                                       !- Part of Total Floor Area
  ,                                       !- Design Specification Outdoor Air Object Name
  ,                                       !- Building Unit Name
  692.06373070848;                        !- Volume {m3}

OS:Schedule:Ruleset,
  {266fbf5c-f4a3-40ff-ab93-2fbcc1493bdd}, !- Handle
  heating setpoint,                       !- Name
  {ccc5a793-3b0a-446d-b9cd-e9ee183b869a}, !- Schedule Type Limits Name
  {35379bd5-bbdb-40b3-b8e7-9a3ccca37caa}; !- Default Day Schedule Name

OS:Schedule:Day,
  {35379bd5-bbdb-40b3-b8e7-9a3ccca37caa}, !- Handle
  heating setpoint default day,           !- Name
  {ccc5a793-3b0a-446d-b9cd-e9ee183b869a}, !- Schedule Type Limits Name
  ,                                       !- Interpolate to Timestep
  24,                                     !- Hour 1
  0,                                      !- Minute 1
  0;                                      !- Value Until Time 1

OS:Schedule:Rule,
  {87103da2-f9b0-4d29-8990-67f86bfabd8e}, !- Handle
  heating setpoint allday rule,           !- Name
  {266fbf5c-f4a3-40ff-ab93-2fbcc1493bdd}, !- Schedule Ruleset Name
  0,                                      !- Rule Order
  {33ec899f-a90d-4cde-80f5-eafe0d03da36}, !- Day Schedule Name
  Yes,                                    !- Apply Sunday
  Yes,                                    !- Apply Monday
  Yes,                                    !- Apply Tuesday
  Yes,                                    !- Apply Wednesday
  Yes,                                    !- Apply Thursday
  Yes,                                    !- Apply Friday
  Yes,                                    !- Apply Saturday
  DateRange,                              !- Date Specification Type
  1,                                      !- Start Month
  1,                                      !- Start Day
  12,                                     !- End Month
  31;                                     !- End Day

OS:Schedule:Day,
  {33ec899f-a90d-4cde-80f5-eafe0d03da36}, !- Handle
  heating setpoint day,                   !- Name
  {ccc5a793-3b0a-446d-b9cd-e9ee183b869a}, !- Schedule Type Limits Name
  ,                                       !- Interpolate to Timestep
  24,                                     !- Hour 1
  0,                                      !- Minute 1
  20;                                     !- Value Until Time 1

OS:Schedule:Ruleset,
  {9702e2ba-da89-438c-ae97-3bfff34cb7b5}, !- Handle
  cooling setpoint,                       !- Name
  {ccc5a793-3b0a-446d-b9cd-e9ee183b869a}, !- Schedule Type Limits Name
  {22dc3164-caff-4857-8287-05a14256ca73}; !- Default Day Schedule Name

OS:Schedule:Day,
  {22dc3164-caff-4857-8287-05a14256ca73}, !- Handle
  cooling setpoint default day,           !- Name
  {ccc5a793-3b0a-446d-b9cd-e9ee183b869a}, !- Schedule Type Limits Name
  ,                                       !- Interpolate to Timestep
  24,                                     !- Hour 1
  0,                                      !- Minute 1
  0;                                      !- Value Until Time 1

OS:Schedule:Rule,
  {8e4ea6b5-778a-47e6-916c-56bebb0a6e15}, !- Handle
  cooling setpoint allday rule,           !- Name
  {9702e2ba-da89-438c-ae97-3bfff34cb7b5}, !- Schedule Ruleset Name
  0,                                      !- Rule Order
  {f17933b9-13f4-4435-8d6c-f2a4019e34e6}, !- Day Schedule Name
  Yes,                                    !- Apply Sunday
  Yes,                                    !- Apply Monday
  Yes,                                    !- Apply Tuesday
  Yes,                                    !- Apply Wednesday
  Yes,                                    !- Apply Thursday
  Yes,                                    !- Apply Friday
  Yes,                                    !- Apply Saturday
  DateRange,                              !- Date Specification Type
  1,                                      !- Start Month
  1,                                      !- Start Day
  12,                                     !- End Month
  31;                                     !- End Day

OS:Schedule:Day,
  {f17933b9-13f4-4435-8d6c-f2a4019e34e6}, !- Handle
  cooling setpoint day,                   !- Name
  {ccc5a793-3b0a-446d-b9cd-e9ee183b869a}, !- Schedule Type Limits Name
  ,                                       !- Interpolate to Timestep
  24,                                     !- Hour 1
  0,                                      !- Minute 1
  25.5555555555556;                       !- Value Until Time 1

OS:ThermostatSetpoint:DualSetpoint,
  {b9ea6d72-24c6-4c31-984d-c67cee505389}, !- Handle
  conditioned space temperature setpoint, !- Name
  {266fbf5c-f4a3-40ff-ab93-2fbcc1493bdd}, !- Heating Setpoint Temperature Schedule Name
  {9702e2ba-da89-438c-ae97-3bfff34cb7b5}, !- Cooling Setpoint Temperature Schedule Name
  0;                                      !- Temperature Difference Between Cutout And Setpoint {deltaC}

OS:ScheduleTypeLimits,
  {ccc5a793-3b0a-446d-b9cd-e9ee183b869a}, !- Handle
  Temperature,                            !- Name
  ,                                       !- Lower Limit Value
  ,                                       !- Upper Limit Value
  Continuous,                             !- Numeric Type
  Temperature;                            !- Unit Type

OS:Surface,
  {0db101f3-ad3f-4381-909e-39c3f4f20bea}, !- Handle
  Roof1,                                  !- Name
  RoofCeiling,                            !- Surface Type
  {32a1fc18-2309-4ccf-b4f4-da9abdf16d9a}, !- Construction Name
  {bd56d399-306a-40fa-97e6-95f06a5958ff}, !- Space Name
  Outdoors,                               !- Outside Boundary Condition
  ,                                       !- Outside Boundary Condition Object
  SunExposed,                             !- Sun Exposure
  WindExposed,                            !- Wind Exposure
  ,                                       !- View Factor to Ground
  ,                                       !- Number of Vertices
  -26.9347048849634, 58.0557891618865, 2.4384, !- X,Y,Z Vertex 1 {m}
  -26.9347048849634, 46.7895631136661, 8.0715130241102, !- X,Y,Z Vertex 2 {m}
  -14.3386812381136, 46.7895631136661, 8.0715130241102, !- X,Y,Z Vertex 3 {m}
  -14.3386812381136, 58.0557891618865, 2.4384; !- X,Y,Z Vertex 4 {m}

OS:AdditionalProperties,
  {d63b7054-a1b6-494c-9710-42e94da1aa8f}, !- Handle
  {0db101f3-ad3f-4381-909e-39c3f4f20bea}, !- Object Name
  Length,                                 !- Feature Name 1
  Double,                                 !- Feature Data Type 1
  41.325536899113608,                     !- Feature Value 1
  Width,                                  !- Feature Name 2
  Double,                                 !- Feature Data Type 2
  41.325536899113601,                     !- Feature Value 2
  Azimuth,                                !- Feature Name 3
  Integer,                                !- Feature Data Type 3
  0,                                      !- Feature Value 3
  Tilt,                                   !- Feature Name 4
  Double,                                 !- Feature Data Type 4
  0.5,                                    !- Feature Value 4
  SurfaceType,                            !- Feature Name 5
  String,                                 !- Feature Data Type 5
  Roof;                                   !- Feature Value 5

OS:ThermalZone,
  {c6c1cbfb-ac8b-426e-af14-3f35a39bbfe4}, !- Handle
  attic - vented,                         !- Name
  1,                                      !- Multiplier
  ,                                       !- Ceiling Height {m}
  356.389957095237,                       !- Volume {m3}
  ,                                       !- Floor Area {m2}
  ,                                       !- Zone Inside Convection Algorithm
  ,                                       !- Zone Outside Convection Algorithm
  ,                                       !- Zone Conditioning Equipment List Name
  {b7ba47b6-282a-44d3-a1c5-857c58a0fd3a}, !- Zone Air Inlet Port List
  {f117f670-823c-46ea-83a6-a797e58ecb85}, !- Zone Air Exhaust Port List
  {07ef1d15-2464-4738-bb1c-634a499b56bd}, !- Zone Air Node Name
  {59f4f925-4b2d-42b7-baae-9047046cfed8}, !- Zone Return Air Port List
  ,                                       !- Primary Daylighting Control Name
  ,                                       !- Fraction of Zone Controlled by Primary Daylighting Control
  ,                                       !- Secondary Daylighting Control Name
  ,                                       !- Fraction of Zone Controlled by Secondary Daylighting Control
  ,                                       !- Illuminance Map Name
  ,                                       !- Group Rendering Name
  ,                                       !- Thermostat Name
  No;                                     !- Use Ideal Air Loads

OS:Node,
  {4f6343cc-4af8-4613-a000-a895397aa699}, !- Handle
  Node 2,                                 !- Name
  {07ef1d15-2464-4738-bb1c-634a499b56bd}, !- Inlet Port
  ;                                       !- Outlet Port

OS:Connection,
  {07ef1d15-2464-4738-bb1c-634a499b56bd}, !- Handle
  {c6c1cbfb-ac8b-426e-af14-3f35a39bbfe4}, !- Source Object
  11,                                     !- Outlet Port
  {4f6343cc-4af8-4613-a000-a895397aa699}, !- Target Object
  2;                                      !- Inlet Port

OS:PortList,
  {b7ba47b6-282a-44d3-a1c5-857c58a0fd3a}, !- Handle
  {c6c1cbfb-ac8b-426e-af14-3f35a39bbfe4}; !- HVAC Component

OS:PortList,
  {f117f670-823c-46ea-83a6-a797e58ecb85}, !- Handle
  {c6c1cbfb-ac8b-426e-af14-3f35a39bbfe4}; !- HVAC Component

OS:PortList,
  {59f4f925-4b2d-42b7-baae-9047046cfed8}, !- Handle
  {c6c1cbfb-ac8b-426e-af14-3f35a39bbfe4}; !- HVAC Component

OS:Sizing:Zone,
  {2e120a18-d153-4955-8241-965d0166b6de}, !- Handle
  {c6c1cbfb-ac8b-426e-af14-3f35a39bbfe4}, !- Zone or ZoneList Name
  SupplyAirTemperature,                   !- Zone Cooling Design Supply Air Temperature Input Method
  14,                                     !- Zone Cooling Design Supply Air Temperature {C}
  11.11,                                  !- Zone Cooling Design Supply Air Temperature Difference {deltaC}
  SupplyAirTemperature,                   !- Zone Heating Design Supply Air Temperature Input Method
  40,                                     !- Zone Heating Design Supply Air Temperature {C}
  11.11,                                  !- Zone Heating Design Supply Air Temperature Difference {deltaC}
  0.0085,                                 !- Zone Cooling Design Supply Air Humidity Ratio {kg-H2O/kg-air}
  0.008,                                  !- Zone Heating Design Supply Air Humidity Ratio {kg-H2O/kg-air}
  ,                                       !- Zone Heating Sizing Factor
  ,                                       !- Zone Cooling Sizing Factor
  DesignDay,                              !- Cooling Design Air Flow Method
  ,                                       !- Cooling Design Air Flow Rate {m3/s}
  ,                                       !- Cooling Minimum Air Flow per Zone Floor Area {m3/s-m2}
  ,                                       !- Cooling Minimum Air Flow {m3/s}
  ,                                       !- Cooling Minimum Air Flow Fraction
  DesignDay,                              !- Heating Design Air Flow Method
  ,                                       !- Heating Design Air Flow Rate {m3/s}
  ,                                       !- Heating Maximum Air Flow per Zone Floor Area {m3/s-m2}
  ,                                       !- Heating Maximum Air Flow {m3/s}
  ,                                       !- Heating Maximum Air Flow Fraction
  No,                                     !- Account for Dedicated Outdoor Air System
  NeutralSupplyAir,                       !- Dedicated Outdoor Air System Control Strategy
  autosize,                               !- Dedicated Outdoor Air Low Setpoint Temperature for Design {C}
  autosize,                               !- Dedicated Outdoor Air High Setpoint Temperature for Design {C}
  Sensible Load Only No Latent Load,      !- Zone Load Sizing Method
  HumidityRatioDifference,                !- Zone Latent Cooling Design Supply Air Humidity Ratio Input Method
  ,                                       !- Zone Dehumidification Design Supply Air Humidity Ratio {kgWater/kgDryAir}
  0.005,                                  !- Zone Cooling Design Supply Air Humidity Ratio Difference {kgWater/kgDryAir}
  HumidityRatioDifference,                !- Zone Latent Heating Design Supply Air Humidity Ratio Input Method
  ,                                       !- Zone Humidification Design Supply Air Humidity Ratio {kgWater/kgDryAir}
  0.005,                                  !- Zone Humidification Design Supply Air Humidity Ratio Difference {kgWater/kgDryAir}
  ,                                       !- Zone Humidistat Dehumidification Set Point Schedule Name
  ,                                       !- Zone Humidistat Humidification Set Point Schedule Name
  ,                                       !- Design Zone Air Distribution Effectiveness in Cooling Mode
  ,                                       !- Design Zone Air Distribution Effectiveness in Heating Mode
  ,                                       !- Design Zone Secondary Recirculation Fraction {dimensionless}
  ,                                       !- Design Minimum Zone Ventilation Efficiency {dimensionless}
  Coincident;                             !- Sizing Option

OS:ZoneHVAC:EquipmentList,
  {18dcc222-a5d0-439b-8742-7b6cb538eb5f}, !- Handle
  Zone HVAC Equipment List 2,             !- Name
  {c6c1cbfb-ac8b-426e-af14-3f35a39bbfe4}; !- Thermal Zone

OS:AdditionalProperties,
  {d210c53c-99df-44b7-be5b-9d0ecc3ca55b}, !- Handle
  {c6c1cbfb-ac8b-426e-af14-3f35a39bbfe4}, !- Object Name
  ObjectType,                             !- Feature Name 1
  String,                                 !- Feature Data Type 1
  attic - vented;                         !- Feature Value 1

OS:Space,
  {bd56d399-306a-40fa-97e6-95f06a5958ff}, !- Handle
  attic - vented 1,                       !- Name
  ,                                       !- Space Type Name
  ,                                       !- Default Construction Set Name
  ,                                       !- Default Schedule Set Name
  ,                                       !- Direction of Relative North {deg}
  ,                                       !- X Origin {m}
  ,                                       !- Y Origin {m}
  ,                                       !- Z Origin {m}
  ,                                       !- Building Story Name
  {c6c1cbfb-ac8b-426e-af14-3f35a39bbfe4}, !- Thermal Zone Name
  ,                                       !- Part of Total Floor Area
  ,                                       !- Design Specification Outdoor Air Object Name
  ,                                       !- Building Unit Name
  356.389957095237;                       !- Volume {m3}

OS:Material,
  {726c4a03-eb89-4ad0-86bd-2e4585d928ea}, !- Handle
  asphalt or fiberglass shingles,         !- Name
  Rough,                                  !- Roughness
  0.00635,                                !- Thickness {m}
  0.162714,                               !- Conductivity {W/m-K}
  1121.4,                                 !- Density {kg/m3}
  1465.45,                                !- Specific Heat {J/kg-K}
  0.9,                                    !- Thermal Absorptance
  0.85,                                   !- Solar Absorptance