
OS:Version,
  {822babef-1a9e-46d9-9e3f-dc1407415c27}, !- Handle
  3.9.0;                                  !- Version Identifier

OS:SimulationControl,
  {08802991-a14c-4595-a98b-c66030658d45}, !- Handle
  ,                                       !- Do Zone Sizing Calculation
  ,                                       !- Do System Sizing Calculation
  ,                                       !- Do Plant Sizing Calculation
  No;                                     !- Run Simulation for Sizing Periods

OS:Timestep,
  {b93fddf5-9736-47ad-97e3-4da8bf31a8a7}, !- Handle
  1;                                      !- Number of Timesteps per Hour

OS:ShadowCalculation,
  {ca3523dc-c042-4ec3-a479-ba130a9fb93b}, !- Handle
  PolygonClipping,                        !- Shading Calculation Method
  ,                                       !- Shading Calculation Update Frequency Method
  20,                                     !- Shading Calculation Update Frequency
  200,                                    !- Maximum Figures in Shadow Overlap Calculations
  ,                                       !- Polygon Clipping Algorithm
  512,                                    !- Pixel Counting Resolution
  ,                                       !- Sky Diffuse Modeling Algorithm
  No,                                     !- Output External Shading Calculation Results
  No,                                     !- Disable Self-Shading Within Shading Zone Groups
  No;                                     !- Disable Self-Shading From Shading Zone Groups to Other Zones

OS:SurfaceConvectionAlgorithm:Outside,
  {aba84358-33f0-4d51-a041-b2c8259091a0}, !- Handle
  DOE-2;                                  !- Algorithm

OS:SurfaceConvectionAlgorithm:Inside,
  {963ad9d5-e2ae-4d35-a5ac-59a4b84fc2af}, !- Handle
  TARP;                                   !- Algorithm

OS:ZoneCapacitanceMultiplier:ResearchSpecial,
  {92394724-4bdb-42b6-a3dc-7d5d12da4b33}, !- Handle
  7,                                      !- Temperature Capacity Multiplier
  15,                                     !- Humidity Capacity Multiplier
  ;                                       !- Carbon Dioxide Capacity Multiplier

OS:ConvergenceLimits,
  {f606ef79-56f8-4f0f-92cf-b37bc5673f87}, !- Handle
  0;                                      !- Minimum System Timestep {minutes}

OS:RunPeriod,
  {570b2468-944f-4872-9c3c-8bdd2ec54c9b}, !- Handle
  Run Period 1,                           !- Name
  1,                                      !- Begin Month
  1,                                      !- Begin Day of Month
  12,                                     !- End Month
  31,                                     !- End Day of Month
  ,                                       !- Use Weather File Holidays and Special Days
  ,                                       !- Use Weather File Daylight Saving Period
  ,                                       !- Apply Weekend Holiday Rule
  ,                                       !- Use Weather File Rain Indicators
  ,                                       !- Use Weather File Snow Indicators
  ;                                       !- Number of Times Runperiod to be Repeated

OS:PerformancePrecisionTradeoffs,
  {b0c5cdf3-5e4a-41d6-b557-016ce02ece10}, !- Handle
  ,                                       !- Use Coil Direct Solutions
  CarrollMRT;                             !- Zone Radiant Exchange Algorithm

OS:WeatherFile,
  {45e214b2-0d5f-49cc-8567-31bfc1b107d8}, !- Handle
  Buffalo Niagara Intl Ap,                !- City
  NY,                                     !- State Province Region
  USA,                                    !- Country
  TMY3,                                   !- Data Source
  725280,                                 !- WMO Number
  42.93,                                  !- Latitude {deg}
  -78.73,                                 !- Longitude {deg}
  -5,                                     !- Time Zone {hr}
  215,                                    !- Elevation {m}
  /Users/nmoore/github/urbanopt-example-geojson-project/example_project/weather/USA_NY_Buffalo-Greater.Buffalo.Intl.AP.725280_TMY3.epw, !- Url
  6B50E0FF,                               !- Checksum
  ,                                       !- Start Date Actual Year
  Sunday;                                 !- Start Day of Week

OS:YearDescription,
  {46272664-54e7-4c82-a985-b64455fd4124}, !- Handle
  2007,                                   !- Calendar Year
  ,                                       !- Day of Week for Start Day
  ;                                       !- Is Leap Year

OS:Site,
  {e89876cc-a452-4b52-b1f7-9e0958705183}, !- Handle
  Buffalo Niagara Intl Ap_NY,             !- Name
  42.93,                                  !- Latitude {deg}
  -78.73,                                 !- Longitude {deg}
  -5,                                     !- Time Zone {hr}
  215,                                    !- Elevation {m}
  Suburbs,                                !- Terrain
  Yes;                                    !- Keep Site Location Information

OS:RunPeriodControl:DaylightSavingTime,
  {428328c9-79bf-4968-a830-5bee680f9ce8}, !- Handle
  Mar 12,                                 !- Start Date
  Nov 5;                                  !- End Date

OS:Site:GroundTemperature:Shallow,
  {804aaecb-4dbb-4a2a-a22b-aec0d532dcad}, !- Handle
  4.30207395723828,                       !- January Surface Ground Temperature {C}
  2.29327249652502,                       !- February Surface Ground Temperature {C}
  2.13240047156047,                       !- March Surface Ground Temperature {C}
  3.08567940719286,                       !- April Surface Ground Temperature {C}
  6.91256312497526,                       !- May Surface Ground Temperature {C}
  10.7216195949507,                       !- June Surface Ground Temperature {C}
  14.0238679822574,                       !- July Surface Ground Temperature {C}
  16.1157611184724,                       !- August Surface Ground Temperature {C}
  16.2934789303462,                       !- September Surface Ground Temperature {C}
  14.5920754632847,                       !- October Surface Ground Temperature {C}
  11.374036348653,                        !- November Surface Ground Temperature {C}
  7.68182621661674;                       !- December Surface Ground Temperature {C}

OS:ThermalZone,
  {c22987b1-41c8-4daa-b3f9-7ffb1f25ead3}, !- Handle
  conditioned space,                      !- Name
  1,                                      !- Multiplier
  ,                                       !- Ceiling Height {m}
  346.03186535424,                        !- Volume {m3}
  ,                                       !- Floor Area {m2}
  ,                                       !- Zone Inside Convection Algorithm
  ,                                       !- Zone Outside Convection Algorithm
  ,                                       !- Zone Conditioning Equipment List Name
  {1356470f-4c3e-45c8-96a7-bd1703fc8e24}, !- Zone Air Inlet Port List
  {49f2c565-4682-4b7f-807c-76ec2f59c16e}, !- Zone Air Exhaust Port List
  {103569f8-9dfb-4402-9014-786cb21e09aa}, !- Zone Air Node Name
  {1ab5c952-ed3b-4a6f-9c0f-87191e9904f2}, !- Zone Return Air Port List
  ,                                       !- Primary Daylighting Control Name
  ,                                       !- Fraction of Zone Controlled by Primary Daylighting Control
  ,                                       !- Secondary Daylighting Control Name
  ,                                       !- Fraction of Zone Controlled by Secondary Daylighting Control
  ,                                       !- Illuminance Map Name
  ,                                       !- Group Rendering Name
  {5a4b94f8-f589-4796-be1a-3ffc8414d709}, !- Thermostat Name
  No;                                     !- Use Ideal Air Loads

OS:Node,
  {8595ae0c-2414-4c82-9bd0-3bbf906e0aa4}, !- Handle
  Node 1,                                 !- Name
  {103569f8-9dfb-4402-9014-786cb21e09aa}, !- Inlet Port
  ;                                       !- Outlet Port

OS:Connection,
  {103569f8-9dfb-4402-9014-786cb21e09aa}, !- Handle
  {c22987b1-41c8-4daa-b3f9-7ffb1f25ead3}, !- Source Object
  11,                                     !- Outlet Port
  {8595ae0c-2414-4c82-9bd0-3bbf906e0aa4}, !- Target Object
  2;                                      !- Inlet Port

OS:PortList,
  {1356470f-4c3e-45c8-96a7-bd1703fc8e24}, !- Handle
  {c22987b1-41c8-4daa-b3f9-7ffb1f25ead3}, !- HVAC Component
  {d0322c65-1c5c-4b45-b2a0-ce5a9c9fb4ad}; !- Port 1

OS:PortList,
  {49f2c565-4682-4b7f-807c-76ec2f59c16e}, !- Handle
  {c22987b1-41c8-4daa-b3f9-7ffb1f25ead3}; !- HVAC Component

OS:PortList,
  {1ab5c952-ed3b-4a6f-9c0f-87191e9904f2}, !- Handle
  {c22987b1-41c8-4daa-b3f9-7ffb1f25ead3}, !- HVAC Component
  {fb2b8f2b-a2cb-4ef7-87f7-e427d3a22207}; !- Port 1

OS:Sizing:Zone,
  {8efcd22e-9672-4acb-ab84-9f148171ca77}, !- Handle
  {c22987b1-41c8-4daa-b3f9-7ffb1f25ead3}, !- Zone or ZoneList Name
  SupplyAirTemperature,                   !- Zone Cooling Design Supply Air Temperature Input Method
  14,                                     !- Zone Cooling Design Supply Air Temperature {C}
  11.11,                                  !- Zone Cooling Design Supply Air Temperature Difference {deltaC}
  SupplyAirTemperature,                   !- Zone Heating Design Supply Air Temperature Input Method
  40,                                     !- Zone Heating Design Supply Air Temperature {C}
  11.11,                                  !- Zone Heating Design Supply Air Temperature Difference {deltaC}
  0.0085,                                 !- Zone Cooling Design Supply Air Humidity Ratio {kg-H2O/kg-air}
  0.008,                                  !- Zone Heating Design Supply Air Humidity Ratio {kg-H2O/kg-air}
  ,                                       !- Zone Heating Sizing Factor
  ,                                       !- Zone Cooling Sizing Factor
  DesignDay,                              !- Cooling Design Air Flow Method
  ,                                       !- Cooling Design Air Flow Rate {m3/s}
  ,                                       !- Cooling Minimum Air Flow per Zone Floor Area {m3/s-m2}
  ,                                       !- Cooling Minimum Air Flow {m3/s}
  ,                                       !- Cooling Minimum Air Flow Fraction
  DesignDay,                              !- Heating Design Air Flow Method
  ,                                       !- Heating Design Air Flow Rate {m3/s}
  ,                                       !- Heating Maximum Air Flow per Zone Floor Area {m3/s-m2}
  ,                                       !- Heating Maximum Air Flow {m3/s}
  ,                                       !- Heating Maximum Air Flow Fraction
  No,                                     !- Account for Dedicated Outdoor Air System
  NeutralSupplyAir,                       !- Dedicated Outdoor Air System Control Strategy
  autosize,                               !- Dedicated Outdoor Air Low Setpoint Temperature for Design {C}
  autosize,                               !- Dedicated Outdoor Air High Setpoint Temperature for Design {C}
  Sensible Load Only No Latent Load,      !- Zone Load Sizing Method
  HumidityRatioDifference,                !- Zone Latent Cooling Design Supply Air Humidity Ratio Input Method
  ,                                       !- Zone Dehumidification Design Supply Air Humidity Ratio {kgWater/kgDryAir}
  0.005,                                  !- Zone Cooling Design Supply Air Humidity Ratio Difference {kgWater/kgDryAir}
  HumidityRatioDifference,                !- Zone Latent Heating Design Supply Air Humidity Ratio Input Method
  ,                                       !- Zone Humidification Design Supply Air Humidity Ratio {kgWater/kgDryAir}
  0.005,                                  !- Zone Humidification Design Supply Air Humidity Ratio Difference {kgWater/kgDryAir}
  ,                                       !- Zone Humidistat Dehumidification Set Point Schedule Name
  ,                                       !- Zone Humidistat Humidification Set Point Schedule Name
  ,                                       !- Design Zone Air Distribution Effectiveness in Cooling Mode
  ,                                       !- Design Zone Air Distribution Effectiveness in Heating Mode
  ,                                       !- Design Zone Secondary Recirculation Fraction {dimensionless}
  ,                                       !- Design Minimum Zone Ventilation Efficiency {dimensionless}
  Coincident;                             !- Sizing Option

OS:ZoneHVAC:EquipmentList,
  {e959f9af-51a4-4615-8d95-aa0db22974ef}, !- Handle
  Zone HVAC Equipment List 1,             !- Name
  {c22987b1-41c8-4daa-b3f9-7ffb1f25ead3}, !- Thermal Zone
  ,                                       !- Load Distribution Scheme
  {d0560967-0224-47a2-9995-b70ac531f3da}, !- Zone Equipment 1
  1,                                      !- Zone Equipment Cooling Sequence 1
  1,                                      !- Zone Equipment Heating or No-Load Sequence 1
  {49010ea2-88a5-4dcb-a11f-924357bb1e61}, !- Zone Equipment Sequential Cooling Fraction Schedule Name 1
  {aec50a22-7cf1-45dd-8e44-2f1c80205cb0}; !- Zone Equipment Sequential Heating Fraction Schedule Name 1

OS:AdditionalProperties,
  {7a070650-7016-42c6-934c-6e78746c2427}, !- Handle
  {c22987b1-41c8-4daa-b3f9-7ffb1f25ead3}, !- Object Name
  ObjectType,                             !- Feature Name 1
  String,                                 !- Feature Data Type 1
  conditioned space;                      !- Feature Value 1

OS:Space,
  {d805b527-e387-485b-aa07-f61cba3020da}, !- Handle
  conditioned space 1,                    !- Name
  ,                                       !- Space Type Name
  ,                                       !- Default Construction Set Name
  ,                                       !- Default Schedule Set Name
  ,                                       !- Direction of Relative North {deg}
  ,                                       !- X Origin {m}
  ,                                       !- Y Origin {m}
  ,                                       !- Z Origin {m}
  ,                                       !- Building Story Name
  {c22987b1-41c8-4daa-b3f9-7ffb1f25ead3}, !- Thermal Zone Name
  ,                                       !- Part of Total Floor Area
  ,                                       !- Design Specification Outdoor Air Object Name
  ,                                       !- Building Unit Name
  346.03186535424;                        !- Volume {m3}

OS:Schedule:Ruleset,
  {e0f646a5-b8c8-4e58-a1ce-7201885e78fa}, !- Handle
  heating setpoint,                       !- Name
  {e012df5a-ab6c-4c60-b532-959132f8646c}, !- Schedule Type Limits Name
  {18737e76-4edb-4cf3-af64-8a53b819a7cd}; !- Default Day Schedule Name

OS:Schedule:Day,
  {18737e76-4edb-4cf3-af64-8a53b819a7cd}, !- Handle
  heating setpoint default day,           !- Name
  {e012df5a-ab6c-4c60-b532-959132f8646c}, !- Schedule Type Limits Name
  ,                                       !- Interpolate to Timestep
  24,                                     !- Hour 1
  0,                                      !- Minute 1
  0;                                      !- Value Until Time 1

OS:Schedule:Rule,
  {ef41ac95-08a4-4a5e-a86c-ffa7643d5ab0}, !- Handle
  heating setpoint allday rule,           !- Name
  {e0f646a5-b8c8-4e58-a1ce-7201885e78fa}, !- Schedule Ruleset Name
  0,                                      !- Rule Order
  {2a3511ef-ea70-42c4-86e3-813b9fbe9b0b}, !- Day Schedule Name
  Yes,                                    !- Apply Sunday
  Yes,                                    !- Apply Monday
  Yes,                                    !- Apply Tuesday
  Yes,                                    !- Apply Wednesday
  Yes,                                    !- Apply Thursday
  Yes,                                    !- Apply Friday
  Yes,                                    !- Apply Saturday
  DateRange,                              !- Date Specification Type
  1,                                      !- Start Month
  1,                                      !- Start Day
  12,                                     !- End Month
  31;                                     !- End Day

OS:Schedule:Day,
  {2a3511ef-ea70-42c4-86e3-813b9fbe9b0b}, !- Handle
  heating setpoint day,                   !- Name
  {e012df5a-ab6c-4c60-b532-959132f8646c}, !- Schedule Type Limits Name
  ,                                       !- Interpolate to Timestep
  24,                                     !- Hour 1
  0,                                      !- Minute 1
  20;                                     !- Value Until Time 1

OS:Schedule:Ruleset,
  {254ef53f-925f-4a1c-8b6d-f848cf492864}, !- Handle
  cooling setpoint,                       !- Name
  {e012df5a-ab6c-4c60-b532-959132f8646c}, !- Schedule Type Limits Name
  {27c93a76-2dc8-41f7-81e5-77a94fea4401}; !- Default Day Schedule Name

OS:Schedule:Day,
  {27c93a76-2dc8-41f7-81e5-77a94fea4401}, !- Handle
  cooling setpoint default day,           !- Name
  {e012df5a-ab6c-4c60-b532-959132f8646c}, !- Schedule Type Limits Name
  ,                                       !- Interpolate to Timestep
  24,                                     !- Hour 1
  0,                                      !- Minute 1
  0;                                      !- Value Until Time 1

OS:Schedule:Rule,
  {c279544c-6a11-4e6e-8e69-9a4e21383792}, !- Handle
  cooling setpoint allday rule,           !- Name
  {254ef53f-925f-4a1c-8b6d-f848cf492864}, !- Schedule Ruleset Name
  0,                                      !- Rule Order
  {9dcdfc76-38a6-42cc-bea6-8ed6169379ab}, !- Day Schedule Name
  Yes,                                    !- Apply Sunday
  Yes,                                    !- Apply Monday
  Yes,                                    !- Apply Tuesday
  Yes,                                    !- Apply Wednesday
  Yes,                                    !- Apply Thursday
  Yes,                                    !- Apply Friday
  Yes,                                    !- Apply Saturday
  DateRange,                              !- Date Specification Type
  1,                                      !- Start Month
  1,                                      !- Start Day
  12,                                     !- End Month
  31;                                     !- End Day

OS:Schedule:Day,
  {9dcdfc76-38a6-42cc-bea6-8ed6169379ab}, !- Handle
  cooling setpoint day,                   !- Name
  {e012df5a-ab6c-4c60-b532-959132f8646c}, !- Schedule Type Limits Name
  ,                                       !- Interpolate to Timestep
  24,                                     !- Hour 1
  0,                                      !- Minute 1
  25.5555555555556;                       !- Value Until Time 1

OS:ThermostatSetpoint:DualSetpoint,
  {5a4b94f8-f589-4796-be1a-3ffc8414d709}, !- Handle
  conditioned space temperature setpoint, !- Name
  {e0f646a5-b8c8-4e58-a1ce-7201885e78fa}, !- Heating Setpoint Temperature Schedule Name
  {254ef53f-925f-4a1c-8b6d-f848cf492864}, !- Cooling Setpoint Temperature Schedule Name
  0;                                      !- Temperature Difference Between Cutout And Setpoint {deltaC}

OS:ScheduleTypeLimits,
  {e012df5a-ab6c-4c60-b532-959132f8646c}, !- Handle
  Temperature,                            !- Name
  ,                                       !- Lower Limit Value
  ,                                       !- Upper Limit Value
  Continuous,                             !- Numeric Type
  Temperature;                            !- Unit Type

OS:Surface,
  {f8ea394c-9897-4c18-98e9-ac54508231bd}, !- Handle
  Wall1,                                  !- Name
  Wall,                                   !- Surface Type
  {f46bb06e-d809-4bf0-8fbf-cff96d8687e0}, !- Construction Name
  {d805b527-e387-485b-aa07-f61cba3020da}, !- Space Name
  Outdoors,                               !- Outside Boundary Condition
  ,                                       !- Outside Boundary Condition Object
  SunExposed,                             !- Sun Exposure
  WindExposed,                            !- Wind Exposure
  ,                                       !- View Factor to Ground
  ,                                       !- Number of Vertices
  -41.694735, 42.6237654, 0,              !- X,Y,Z Vertex 1 {m}
  -41.694735, 42.6237654, 2.4384,         !- X,Y,Z Vertex 2 {m}
  -29.780865, 42.6237654, 2.4384,         !- X,Y,Z Vertex 3 {m}
  -29.780865, 42.6237654, 0;              !- X,Y,Z Vertex 4 {m}

OS:AdditionalProperties,
  {ccee4ac0-5471-48db-8466-e72b5fca5753}, !- Handle
  {f8ea394c-9897-4c18-98e9-ac54508231bd}, !- Object Name
  Length,                                 !- Feature Name 1
  Double,                                 !- Feature Data Type 1
  39.087499999999999,                     !- Feature Value 1
  Azimuth,                                !- Feature Name 2
  Integer,                                !- Feature Data Type 2
  0,                                      !- Feature Value 2
  Tilt,                                   !- Feature Name 3
  Double,                                 !- Feature Data Type 3
  90,                                     !- Feature Value 3
  SurfaceType,                            !- Feature Name 4
  String,                                 !- Feature Data Type 4
  Wall;                                   !- Feature Value 4

OS:Material,
  {f9fdb4a4-338c-4d98-87c4-2fe28356768d}, !- Handle
  wood siding,                            !- Name
  Rough,                                  !- Roughness
  0.0254,                                 !- Thickness {m}
  0.1024175,                              !- Conductivity {W/m-K}
  544.68,                                 !- Density {kg/m3}
  1172.36,                                !- Specific Heat {J/kg-K}
  0.9,                                    !- Thermal Absorptance
  0.7,                                    !- Solar Absorptance
  0.7;                                    !- Visible Absorptance

OS:Material,
  {b1c83a36-1b5e-4d79-b5f4-22904bb7566e}, !- Handle
  osb sheathing 0.5 in.,                  !- Name
  Rough,                                  !- Roughness
  0.0127,                                 !- Thickness {m}
  0.1154577,                              !- Conductivity {W/m-K}
  512.64,                                 !- Density {kg/m3}
  1214.23,                                !- Specific Heat {J/kg-K}
  0.9,                                    !- Thermal Absorptance
  0.7,                                    !- Solar Absorptance
  0.7;                                    !- Visible Absorptance

OS:Material,
  {aeb4caaa-d4f3-4030-a3f0-76e1443b66f6}, !- Handle
  wall stud and cavity,                   !- Name
  Rough,                                  !- Roughness
  0.1397,                                 !- Thickness {m}
  0.0929021674204099,                     !- Conductivity {W/m-K}
  139.0536,                               !- Density {kg/m3}
  1170.23755760369,                       !- Specific Heat {J/kg-K}
  0.9,                                    !- Thermal Absorptance
  0.7,                                    !- Solar Absorptance
  0.7;                                    !- Visible Absorptance

OS:Material,
  {31aee0cb-ec4a-44aa-b828-d546f78e039d}, !- Handle
  gypsum board,                           !- Name
  Rough,                                  !- Roughness
  0.0127,                                 !- Thickness {m}
  0.1602906,                              !- Conductivity {W/m-K}
  801,                                    !- Density {kg/m3}
  837.4,                                  !- Specific Heat {J/kg-K}
  0.9,                                    !- Thermal Absorptance
  0.6,                                    !- Solar Absorptance
  0.6;                                    !- Visible Absorptance

OS:Construction,
  {f46bb06e-d809-4bf0-8fbf-cff96d8687e0}, !- Handle
  Wall1 construction,                     !- Name
  ,                                       !- Surface Rendering Name
  {f9fdb4a4-338c-4d98-87c4-2fe28356768d}, !- Layer 1
  {b1c83a36-1b5e-4d79-b5f4-22904bb7566e}, !- Layer 2
  {aeb4caaa-d4f3-4030-a3f0-76e1443b66f6}, !- Layer 3
  {31aee0cb-ec4a-44aa-b828-d546f78e039d}; !- Layer 4

OS:Surface,
  {f23570b5-60d7-4a23-879c-fb46706a871a}, !- Handle
  Wall2,                                  !- Name
  Wall,                                   !- Surface Type
  {6650a5e3-9195-45fe-bf57-04de415dbff4}, !- Construction Name
  {d805b527-e387-485b-aa07-f61cba3020da}, !- Space Name
  Outdoors,                               !- Outside Boundary Condition
  ,                                       !- Outside Boundary Condition Object
  SunExposed,                             !- Sun Exposure
  WindExposed,                            !- Wind Exposure
  ,                                       !- View Factor to Ground
  ,                                       !- Number of Vertices
  42.6237654, -36.6687354, 0,             !- X,Y,Z Vertex 1 {m}
  42.6237654, -36.6687354, 2.4384,        !- X,Y,Z Vertex 2 {m}
  42.6237654, -42.6237654, 2.4384,        !- X,Y,Z Vertex 3 {m}
  42.6237654, -42.6237654, 0;             !- X,Y,Z Vertex 4 {m}

OS:AdditionalProperties,
  {b04d7b0a-69b5-47c8-a4c6-bd7b1bd9f64c}, !- Handle
  {f23570b5-60d7-4a23-879c-fb46706a871a}, !- Object Name
  Length,                                 !- Feature Name 1
  Double,                                 !- Feature Data Type 1
  19.537500000000001,                     !- Feature Value 1
  Azimuth,                                !- Feature Name 2
  Integer,                                !- Feature Data Type 2
  90,                                     !- Feature Value 2
  Tilt,                                   !- Feature Name 3
  Double,                                 !- Feature Data Type 3
  90,                                     !- Feature Value 3
  SurfaceType,                            !- Feature Name 4
  String,                                 !- Feature Data Type 4
  Wall;                                   !- Feature Value 4

OS:Construction,
  {6650a5e3-9195-45fe-bf57-04de415dbff4}, !- Handle
  Wall2 construction,                     !- Name
  ,                                       !- Surface Rendering Name
  {f9fdb4a4-338c-4d98-87c4-2fe28356768d}, !- Layer 1
  {b1c83a36-1b5e-4d79-b5f4-22904bb7566e}, !- Layer 2
  {aeb4caaa-d4f3-4030-a3f0-76e1443b66f6}, !- Layer 3
  {31aee0cb-ec4a-44aa-b828-d546f78e039d}; !- Layer 4

OS:Surface,
  {9a90afc3-c062-4c01-a308-c66dc35282a5}, !- Handle
  Wall3,                                  !- Name
  Wall,                                   !- Surface Type
  {2b81ac55-7586-4d95-9276-2503dc45aae8}, !- Construction Name
  {d805b527-e387-485b-aa07-f61cba3020da}, !- Space Name
  Outdoors,                               !- Outside Boundary Condition
  ,                                       !- Outside Boundary Condition Object
  SunExposed,                             !- Sun Exposure
  WindExposed,                            !- Wind Exposure
  ,                                       !- View Factor to Ground
  ,                                       !- Number of Vertices
  -29.6289219715142, -42.6237654, 0,      !- X,Y,Z Vertex 1 {m}
  -29.6289219715142, -42.6237654, 2.4384, !- X,Y,Z Vertex 2 {m}
  -40.7807919715142, -42.6237654, 2.4384, !- X,Y,Z Vertex 3 {m}
  -40.7807919715142, -42.6237654, 0;      !- X,Y,Z Vertex 4 {m}

OS:AdditionalProperties,
  {9181b769-4ec5-4975-8795-7593e3fe0c96}, !- Handle
  {9a90afc3-c062-4c01-a308-c66dc35282a5}, !- Object Name
  Length,                                 !- Feature Name 1
  Double,                                 !- Feature Data Type 1
  36.587499999999999,                     !- Feature Value 1
  Azimuth,                                !- Feature Name 2
  Integer,                                !- Feature Data Type 2
  180,                                    !- Feature Value 2
  Tilt,                                   !- Feature Name 3
  Double,                                 !- Feature Data Type 3
  90,                                     !- Feature Value 3
  SurfaceType,                            !- Feature Name 4
  String,                                 !- Feature Data Type 4
  Wall;                                   !- Feature Value 4

OS:Construction,
  {2b81ac55-7586-4d95-9276-2503dc45aae8}, !- Handle
  Wall3 construction,                     !- Name
  ,                                       !- Surface Rendering Name
  {f9fdb4a4-338c-4d98-87c4-2fe28356768d}, !- Layer 1
  {b1c83a36-1b5e-4d79-b5f4-22904bb7566e}, !- Layer 2
  {aeb4caaa-d4f3-4030-a3f0-76e1443b66f6}, !- Layer 3
  {31aee0cb-ec4a-44aa-b828-d546f78e039d}; !- Layer 4

OS:Surface,
  {44245c74-9b28-41a1-93a9-3c265d064cb6}, !- Handle
  Wall4,                                  !- Name
  Wall,                                   !- Surface Type
  {7d4f84ca-02e4-44b5-97b0-e55317ceaaaa}, !- Construction Name
  {d805b527-e387-485b-aa07-f61cba3020da}, !- Space Name
  Outdoors,                               !- Outside Boundary Condition
  ,                                       !- Outside Boundary Condition Object
  SunExposed,                             !- Sun Exposure
  WindExposed,                            !- Wind Exposure
  ,                                       !- View Factor to Ground
  ,                                       !- Number of Vertices
  -42.6237654, 36.6687354, 0,             !- X,Y,Z Vertex 1 {m}
  -42.6237654, 36.6687354, 2.4384,        !- X,Y,Z Vertex 2 {m}
  -42.6237654, 42.6237654, 2.4384,        !- X,Y,Z Vertex 3 {m}
  -42.6237654, 42.6237654, 0;             !- X,Y,Z Vertex 4 {m}

OS:AdditionalProperties,
  {ca24bcf3-a9ef-457c-9a6d-1c9a8da6f28b}, !- Handle
  {44245c74-9b28-41a1-93a9-3c265d064cb6}, !- Object Name
  Length,                                 !- Feature Name 1