
OS:Version,
  {c1ac4c1a-452c-408c-bf75-ba3f9915e5a7}, !- Handle
  3.10.0;                                 !- Version Identifier

OS:SimulationControl,
  {bdd02f33-3b0a-4f76-85e8-71f29a2250a6}, !- Handle
  ,                                       !- Do Zone Sizing Calculation
  ,                                       !- Do System Sizing Calculation
  ,                                       !- Do Plant Sizing Calculation
  No;                                     !- Run Simulation for Sizing Periods

OS:Timestep,
  {a343c8c9-7cbc-41d2-ab71-2f7d0ab595ad}, !- Handle
  1;                                      !- Number of Timesteps per Hour

OS:ShadowCalculation,
  {631c1aa8-30cc-4862-8bc5-0880cf82e818}, !- Handle
  PolygonClipping,                        !- Shading Calculation Method
  ,                                       !- Shading Calculation Update Frequency Method
  20,                                     !- Shading Calculation Update Frequency
  200,                                    !- Maximum Figures in Shadow Overlap Calculations
  ,                                       !- Polygon Clipping Algorithm
  512,                                    !- Pixel Counting Resolution
  ,                                       !- Sky Diffuse Modeling Algorithm
  No,                                     !- Output External Shading Calculation Results
  No,                                     !- Disable Self-Shading Within Shading Zone Groups
  No;                                     !- Disable Self-Shading From Shading Zone Groups to Other Zones

OS:SurfaceConvectionAlgorithm:Outside,
  {5f0e1b12-3c6e-4545-a153-9fade7e775a1}, !- Handle
  DOE-2;                                  !- Algorithm

OS:SurfaceConvectionAlgorithm:Inside,
  {4c900e91-1bed-48ad-ab3b-4cbea0cf04a4}, !- Handle
  TARP;                                   !- Algorithm

OS:ZoneCapacitanceMultiplier:ResearchSpecial,
  {89d658fa-2fa7-44b1-ad17-53e18d6258a8}, !- Handle
  7,                                      !- Temperature Capacity Multiplier
  15,                                     !- Humidity Capacity Multiplier
  ;                                       !- Carbon Dioxide Capacity Multiplier

OS:ConvergenceLimits,
  {6d67c9cf-107d-4e95-bbbc-e53fdc090bf6}, !- Handle
  0;                                      !- Minimum System Timestep {minutes}

OS:RunPeriod,
  {b082bbbd-d285-4746-980f-5d4da5954403}, !- Handle
  Run Period 1,                           !- Name
  1,                                      !- Begin Month
  1,                                      !- Begin Day of Month
  12,                                     !- End Month
  31,                                     !- End Day of Month
  ,                                       !- Use Weather File Holidays and Special Days
  ,                                       !- Use Weather File Daylight Saving Period
  ,                                       !- Apply Weekend Holiday Rule
  ,                                       !- Use Weather File Rain Indicators
  ,                                       !- Use Weather File Snow Indicators
  ;                                       !- Number of Times Runperiod to be Repeated

OS:PerformancePrecisionTradeoffs,
  {88a3b748-6945-4ed5-8179-02690dcfb9ff}, !- Handle
  ,                                       !- Use Coil Direct Solutions
  CarrollMRT;                             !- Zone Radiant Exchange Algorithm

OS:WeatherFile,
  {f6ff59ef-cb01-4a34-b0fa-1124c2750eb1}, !- Handle
  Buffalo Niagara Intl Ap,                !- City
  NY,                                     !- State Province Region
  USA,                                    !- Country
  TMY3,                                   !- Data Source
  725280,                                 !- WMO Number
  42.93,                                  !- Latitude {deg}
  -78.73,                                 !- Longitude {deg}
  -5,                                     !- Time Zone {hr}
  215,                                    !- Elevation {m}
  /Users/nmoore/github/urbanopt-example-geojson-project/example_project/weather/USA_NY_Buffalo-Greater.Buffalo.Intl.AP.725280_TMY3.epw, !- Url
  6B50E0FF,                               !- Checksum
  ,                                       !- Start Date Actual Year
  Sunday;                                 !- Start Day of Week

OS:YearDescription,
  {e0ad72ff-709a-4be7-bd6c-e7b1758df285}, !- Handle
  2007,                                   !- Calendar Year
  ,                                       !- Day of Week for Start Day
  ;                                       !- Is Leap Year

OS:Site,
  {c6bfd368-daf5-4c15-8e0e-63f52d1f4642}, !- Handle
  Buffalo Niagara Intl Ap_NY,             !- Name
  42.93,                                  !- Latitude {deg}
  -78.73,                                 !- Longitude {deg}
  -5,                                     !- Time Zone {hr}
  215,                                    !- Elevation {m}
  Suburbs,                                !- Terrain
  Yes;                                    !- Keep Site Location Information

OS:RunPeriodControl:DaylightSavingTime,
  {4263a8b7-f8d7-4cef-8dc4-536f0fbae6f6}, !- Handle
  Mar 12,                                 !- Start Date
  Nov 5;                                  !- End Date

OS:Site:GroundTemperature:Shallow,
  {e303b110-e189-4556-b14c-be5aeb6714e3}, !- Handle
  4.30207395723828,                       !- January Surface Ground Temperature {C}
  2.29327249652502,                       !- February Surface Ground Temperature {C}
  2.13240047156047,                       !- March Surface Ground Temperature {C}
  3.08567940719286,                       !- April Surface Ground Temperature {C}
  6.91256312497526,                       !- May Surface Ground Temperature {C}
  10.7216195949507,                       !- June Surface Ground Temperature {C}
  14.0238679822574,                       !- July Surface Ground Temperature {C}
  16.1157611184724,                       !- August Surface Ground Temperature {C}
  16.2934789303462,                       !- September Surface Ground Temperature {C}
  14.5920754632847,                       !- October Surface Ground Temperature {C}
  11.374036348653,                        !- November Surface Ground Temperature {C}
  7.68182621661674;                       !- December Surface Ground Temperature {C}

OS:ThermalZone,
  {31cf5630-4e76-4bd6-8f51-dd5fd6967fb7}, !- Handle
  conditioned space,                      !- Name
  1,                                      !- Multiplier
  ,                                       !- Ceiling Height {m}
  346.03186535424,                        !- Volume {m3}
  ,                                       !- Floor Area {m2}
  ,                                       !- Zone Inside Convection Algorithm
  ,                                       !- Zone Outside Convection Algorithm
  ,                                       !- Zone Conditioning Equipment List Name
  {4664022a-ab28-463c-9d96-5d4a997bd62e}, !- Zone Air Inlet Port List
  {49bd1d18-9a17-4804-aac3-d81d9d02660f}, !- Zone Air Exhaust Port List
  {32926654-0cfc-4fa6-8fa2-0c019ce3ec51}, !- Zone Air Node Name
  {c2471547-1c54-4ebf-987b-925f297da270}, !- Zone Return Air Port List
  ,                                       !- Primary Daylighting Control Name
  ,                                       !- Fraction of Zone Controlled by Primary Daylighting Control
  ,                                       !- Secondary Daylighting Control Name
  ,                                       !- Fraction of Zone Controlled by Secondary Daylighting Control
  ,                                       !- Illuminance Map Name
  ,                                       !- Group Rendering Name
  {b9daf405-ca68-48a4-a21b-75f80fd4c003}, !- Thermostat Name
  No;                                     !- Use Ideal Air Loads

OS:Node,
  {dc02997d-4616-4701-80fd-e3ef8a1dec0c}, !- Handle
  Node 1,                                 !- Name
  {32926654-0cfc-4fa6-8fa2-0c019ce3ec51}, !- Inlet Port
  ;                                       !- Outlet Port

OS:Connection,
  {32926654-0cfc-4fa6-8fa2-0c019ce3ec51}, !- Handle
  {31cf5630-4e76-4bd6-8f51-dd5fd6967fb7}, !- Source Object
  11,                                     !- Outlet Port
  {dc02997d-4616-4701-80fd-e3ef8a1dec0c}, !- Target Object
  2;                                      !- Inlet Port

OS:PortList,
  {4664022a-ab28-463c-9d96-5d4a997bd62e}, !- Handle
  {31cf5630-4e76-4bd6-8f51-dd5fd6967fb7}, !- HVAC Component
  {067450c2-1679-498e-96ad-6a96c032bfaa}; !- Port 1

OS:PortList,
  {49bd1d18-9a17-4804-aac3-d81d9d02660f}, !- Handle
  {31cf5630-4e76-4bd6-8f51-dd5fd6967fb7}; !- HVAC Component

OS:PortList,
  {c2471547-1c54-4ebf-987b-925f297da270}, !- Handle
  {31cf5630-4e76-4bd6-8f51-dd5fd6967fb7}, !- HVAC Component
  {b23140ce-7ca9-483a-8b74-13888e43d45c}; !- Port 1

OS:Sizing:Zone,
  {7fb5f858-6682-4ac1-aadd-925fb1337378}, !- Handle
  {31cf5630-4e76-4bd6-8f51-dd5fd6967fb7}, !- Zone or ZoneList Name
  SupplyAirTemperature,                   !- Zone Cooling Design Supply Air Temperature Input Method
  14,                                     !- Zone Cooling Design Supply Air Temperature {C}
  11.11,                                  !- Zone Cooling Design Supply Air Temperature Difference {deltaC}
  SupplyAirTemperature,                   !- Zone Heating Design Supply Air Temperature Input Method
  40,                                     !- Zone Heating Design Supply Air Temperature {C}
  11.11,                                  !- Zone Heating Design Supply Air Temperature Difference {deltaC}
  0.0085,                                 !- Zone Cooling Design Supply Air Humidity Ratio {kg-H2O/kg-air}
  0.008,                                  !- Zone Heating Design Supply Air Humidity Ratio {kg-H2O/kg-air}
  ,                                       !- Zone Heating Sizing Factor
  ,                                       !- Zone Cooling Sizing Factor
  DesignDay,                              !- Cooling Design Air Flow Method
  ,                                       !- Cooling Design Air Flow Rate {m3/s}
  ,                                       !- Cooling Minimum Air Flow per Zone Floor Area {m3/s-m2}
  ,                                       !- Cooling Minimum Air Flow {m3/s}
  ,                                       !- Cooling Minimum Air Flow Fraction
  DesignDay,                              !- Heating Design Air Flow Method
  ,                                       !- Heating Design Air Flow Rate {m3/s}
  ,                                       !- Heating Maximum Air Flow per Zone Floor Area {m3/s-m2}
  ,                                       !- Heating Maximum Air Flow {m3/s}
  ,                                       !- Heating Maximum Air Flow Fraction
  No,                                     !- Account for Dedicated Outdoor Air System
  NeutralSupplyAir,                       !- Dedicated Outdoor Air System Control Strategy
  autosize,                               !- Dedicated Outdoor Air Low Setpoint Temperature for Design {C}
  autosize,                               !- Dedicated Outdoor Air High Setpoint Temperature for Design {C}
  Sensible Load Only No Latent Load,      !- Zone Load Sizing Method
  HumidityRatioDifference,                !- Zone Latent Cooling Design Supply Air Humidity Ratio Input Method
  ,                                       !- Zone Dehumidification Design Supply Air Humidity Ratio {kgWater/kgDryAir}
  0.005,                                  !- Zone Cooling Design Supply Air Humidity Ratio Difference {kgWater/kgDryAir}
  HumidityRatioDifference,                !- Zone Latent Heating Design Supply Air Humidity Ratio Input Method
  ,                                       !- Zone Humidification Design Supply Air Humidity Ratio {kgWater/kgDryAir}
  0.005,                                  !- Zone Humidification Design Supply Air Humidity Ratio Difference {kgWater/kgDryAir}
  ,                                       !- Zone Humidistat Dehumidification Set Point Schedule Name
  ,                                       !- Zone Humidistat Humidification Set Point Schedule Name
  ,                                       !- Design Zone Air Distribution Effectiveness in Cooling Mode
  ,                                       !- Design Zone Air Distribution Effectiveness in Heating Mode
  ,                                       !- Design Zone Secondary Recirculation Fraction {dimensionless}
  ,                                       !- Design Minimum Zone Ventilation Efficiency {dimensionless}
  Coincident;                             !- Sizing Option

OS:ZoneHVAC:EquipmentList,
  {aeed31ea-ca4a-4fd2-bf75-02ea87fdb210}, !- Handle
  Zone HVAC Equipment List 1,             !- Name
  {31cf5630-4e76-4bd6-8f51-dd5fd6967fb7}, !- Thermal Zone
  ,                                       !- Load Distribution Scheme
  {53965abc-c3e8-4a4f-9850-3c3a78cc245e}, !- Zone Equipment 1
  1,                                      !- Zone Equipment Cooling Sequence 1
  1,                                      !- Zone Equipment Heating or No-Load Sequence 1
  {89840a0d-6c23-4186-b4a9-ecfd46a92712}, !- Zone Equipment Sequential Cooling Fraction Schedule Name 1
  {5bf620be-65d5-43aa-8fc5-ea13400343f0}; !- Zone Equipment Sequential Heating Fraction Schedule Name 1

OS:AdditionalProperties,
  {d7d9a401-4b36-4c9e-84a8-0ddae95e5e76}, !- Handle
  {31cf5630-4e76-4bd6-8f51-dd5fd6967fb7}, !- Object Name
  ObjectType,                             !- Feature Name 1
  String,                                 !- Feature Data Type 1
  conditioned space;                      !- Feature Value 1

OS:Space,
  {1d681e24-b6a0-4fa3-a50d-7906feaccd9c}, !- Handle
  conditioned space 1,                    !- Name
  ,                                       !- Space Type Name
  ,                                       !- Default Construction Set Name
  ,                                       !- Default Schedule Set Name
  ,                                       !- Direction of Relative North {deg}
  ,                                       !- X Origin {m}
  ,                                       !- Y Origin {m}
  ,                                       !- Z Origin {m}
  ,                                       !- Building Story Name
  {31cf5630-4e76-4bd6-8f51-dd5fd6967fb7}, !- Thermal Zone Name
  ,                                       !- Part of Total Floor Area
  ,                                       !- Design Specification Outdoor Air Object Name
  ,                                       !- Building Unit Name
  346.03186535424;                        !- Volume {m3}

OS:Schedule:Ruleset,
  {5693ec08-d93b-48cf-9172-e299613d7ac2}, !- Handle
  heating setpoint,                       !- Name
  {fe98e294-5391-42c8-8784-eb59caa3b720}, !- Schedule Type Limits Name
  {218ca00e-9b13-4eba-896a-cd4e0705718a}; !- Default Day Schedule Name

OS:Schedule:Day,
  {218ca00e-9b13-4eba-896a-cd4e0705718a}, !- Handle
  heating setpoint default day,           !- Name
  {fe98e294-5391-42c8-8784-eb59caa3b720}, !- Schedule Type Limits Name
  ,                                       !- Interpolate to Timestep
  24,                                     !- Hour 1
  0,                                      !- Minute 1
  0;                                      !- Value Until Time 1

OS:Schedule:Rule,
  {5e2e6e6c-2052-46fe-851c-0cd09afb99b4}, !- Handle
  heating setpoint allday rule,           !- Name
  {5693ec08-d93b-48cf-9172-e299613d7ac2}, !- Schedule Ruleset Name
  0,                                      !- Rule Order
  {85d4f60f-22d4-4c46-92f7-3d86d6256237}, !- Day Schedule Name
  Yes,                                    !- Apply Sunday
  Yes,                                    !- Apply Monday
  Yes,                                    !- Apply Tuesday
  Yes,                                    !- Apply Wednesday
  Yes,                                    !- Apply Thursday
  Yes,                                    !- Apply Friday
  Yes,                                    !- Apply Saturday
  DateRange,                              !- Date Specification Type
  1,                                      !- Start Month
  1,                                      !- Start Day
  12,                                     !- End Month
  31;                                     !- End Day

OS:Schedule:Day,
  {85d4f60f-22d4-4c46-92f7-3d86d6256237}, !- Handle
  heating setpoint day,                   !- Name
  {fe98e294-5391-42c8-8784-eb59caa3b720}, !- Schedule Type Limits Name
  ,                                       !- Interpolate to Timestep
  24,                                     !- Hour 1
  0,                                      !- Minute 1
  20;                                     !- Value Until Time 1

OS:Schedule:Ruleset,
  {c438d7a2-6a65-402a-ac7d-f7dcb4aa5c5c}, !- Handle
  cooling setpoint,                       !- Name
  {fe98e294-5391-42c8-8784-eb59caa3b720}, !- Schedule Type Limits Name
  {f95c5b56-332a-4c1d-a5b1-289b8d12ad24}; !- Default Day Schedule Name

OS:Schedule:Day,
  {f95c5b56-332a-4c1d-a5b1-289b8d12ad24}, !- Handle
  cooling setpoint default day,           !- Name
  {fe98e294-5391-42c8-8784-eb59caa3b720}, !- Schedule Type Limits Name
  ,                                       !- Interpolate to Timestep
  24,                                     !- Hour 1
  0,                                      !- Minute 1
  0;                                      !- Value Until Time 1

OS:Schedule:Rule,
  {e133c8c5-7736-40cf-9bfa-b913bd562dc7}, !- Handle
  cooling setpoint allday rule,           !- Name
  {c438d7a2-6a65-402a-ac7d-f7dcb4aa5c5c}, !- Schedule Ruleset Name
  0,                                      !- Rule Order
  {4889beda-63ba-4294-8a06-6d43e30ef3d8}, !- Day Schedule Name
  Yes,                                    !- Apply Sunday
  Yes,                                    !- Apply Monday
  Yes,                                    !- Apply Tuesday
  Yes,                                    !- Apply Wednesday
  Yes,                                    !- Apply Thursday
  Yes,                                    !- Apply Friday
  Yes,                                    !- Apply Saturday
  DateRange,                              !- Date Specification Type
  1,                                      !- Start Month
  1,                                      !- Start Day
  12,                                     !- End Month
  31;                                     !- End Day

OS:Schedule:Day,
  {4889beda-63ba-4294-8a06-6d43e30ef3d8}, !- Handle
  cooling setpoint day,                   !- Name
  {fe98e294-5391-42c8-8784-eb59caa3b720}, !- Schedule Type Limits Name
  ,                                       !- Interpolate to Timestep
  24,                                     !- Hour 1
  0,                                      !- Minute 1
  25.5555555555556;                       !- Value Until Time 1

OS:ThermostatSetpoint:DualSetpoint,
  {b9daf405-ca68-48a4-a21b-75f80fd4c003}, !- Handle
  conditioned space temperature setpoint, !- Name
  {5693ec08-d93b-48cf-9172-e299613d7ac2}, !- Heating Setpoint Temperature Schedule Name
  {c438d7a2-6a65-402a-ac7d-f7dcb4aa5c5c}, !- Cooling Setpoint Temperature Schedule Name
  0;                                      !- Temperature Difference Between Cutout And Setpoint {deltaC}

OS:ScheduleTypeLimits,
  {fe98e294-5391-42c8-8784-eb59caa3b720}, !- Handle
  Temperature,                            !- Name
  ,                                       !- Lower Limit Value
  ,                                       !- Upper Limit Value
  Continuous,                             !- Numeric Type
  Temperature;                            !- Unit Type

OS:Surface,
  {33844ad4-cc06-413a-9068-9e0fbb270007}, !- Handle
  Wall1,                                  !- Name
  Wall,                                   !- Surface Type
  {fe79fba9-c5fd-435c-876f-e8a40bcdeaad}, !- Construction Name
  {1d681e24-b6a0-4fa3-a50d-7906feaccd9c}, !- Space Name
  Outdoors,                               !- Outside Boundary Condition
  ,                                       !- Outside Boundary Condition Object
  SunExposed,                             !- Sun Exposure
  WindExposed,                            !- Wind Exposure
  ,                                       !- View Factor to Ground
  ,                                       !- Number of Vertices
  -41.694735, 42.6237654, 0,              !- X,Y,Z Vertex 1 {m}
  -41.694735, 42.6237654, 2.4384,         !- X,Y,Z Vertex 2 {m}
  -29.780865, 42.6237654, 2.4384,         !- X,Y,Z Vertex 3 {m}
  -29.780865, 42.6237654, 0;              !- X,Y,Z Vertex 4 {m}

OS:AdditionalProperties,
  {a470957d-4a72-4af0-a9e3-2058b6245e8b}, !- Handle
  {33844ad4-cc06-413a-9068-9e0fbb270007}, !- Object Name
  Length,                                 !- Feature Name 1
  Double,                                 !- Feature Data Type 1
  39.087499999999999,                     !- Feature Value 1
  Azimuth,                                !- Feature Name 2
  Integer,                                !- Feature Data Type 2
  0,                                      !- Feature Value 2
  Tilt,                                   !- Feature Name 3
  Double,                                 !- Feature Data Type 3
  90,                                     !- Feature Value 3
  SurfaceType,                            !- Feature Name 4
  String,                                 !- Feature Data Type 4
  Wall;                                   !- Feature Value 4

OS:Material,
  {e43b1c50-037b-4d67-be95-ec21c479d489}, !- Handle
  wood siding,                            !- Name
  Rough,                                  !- Roughness
  0.0254,                                 !- Thickness {m}
  0.1024175,                              !- Conductivity {W/m-K}
  544.68,                                 !- Density {kg/m3}
  1172.36,                                !- Specific Heat {J/kg-K}
  0.9,                                    !- Thermal Absorptance
  0.7,                                    !- Solar Absorptance
  0.7;                                    !- Visible Absorptance

OS:Material,
  {be732055-03b9-4592-8e77-6d2d8144d87e}, !- Handle
  osb sheathing 0.5 in.,                  !- Name
  Rough,                                  !- Roughness
  0.0127,                                 !- Thickness {m}
  0.1154577,                              !- Conductivity {W/m-K}
  512.64,                                 !- Density {kg/m3}
  1214.23,                                !- Specific Heat {J/kg-K}
  0.9,                                    !- Thermal Absorptance
  0.7,                                    !- Solar Absorptance
  0.7;                                    !- Visible Absorptance

OS:Material,
  {57589e07-bbae-423f-8c75-8edc584e62c6}, !- Handle
  wall stud and cavity,                   !- Name
  Rough,                                  !- Roughness
  0.1397,                                 !- Thickness {m}
  0.0929021674204099,                     !- Conductivity {W/m-K}
  139.0536,                               !- Density {kg/m3}
  1170.23755760369,                       !- Specific Heat {J/kg-K}
  0.9,                                    !- Thermal Absorptance
  0.7,                                    !- Solar Absorptance
  0.7;                                    !- Visible Absorptance

OS:Material,
  {21328816-21e9-4340-a29f-b8de4e2aabd8}, !- Handle
  gypsum board,                           !- Name
  Rough,                                  !- Roughness
  0.0127,                                 !- Thickness {m}
  0.1602906,                              !- Conductivity {W/m-K}
  801,                                    !- Density {kg/m3}
  837.4,                                  !- Specific Heat {J/kg-K}
  0.9,                                    !- Thermal Absorptance
  0.6,                                    !- Solar Absorptance
  0.6;                                    !- Visible Absorptance

OS:Construction,
  {fe79fba9-c5fd-435c-876f-e8a40bcdeaad}, !- Handle
  Wall1 construction,                     !- Name
  ,                                       !- Surface Rendering Name
  {e43b1c50-037b-4d67-be95-ec21c479d489}, !- Layer 1
  {be732055-03b9-4592-8e77-6d2d8144d87e}, !- Layer 2
  {57589e07-bbae-423f-8c75-8edc584e62c6}, !- Layer 3
  {21328816-21e9-4340-a29f-b8de4e2aabd8}; !- Layer 4

OS:Surface,
  {f164f288-97a2-4a11-a6dc-f3c96c4b95bf}, !- Handle
  Wall2,                                  !- Name
  Wall,                                   !- Surface Type
  {c146a741-4c25-4ce2-9210-26f268df0974}, !- Construction Name
  {1d681e24-b6a0-4fa3-a50d-7906feaccd9c}, !- Space Name
  Outdoors,                               !- Outside Boundary Condition
  ,                                       !- Outside Boundary Condition Object
  SunExposed,                             !- Sun Exposure
  WindExposed,                            !- Wind Exposure
  ,                                       !- View Factor to Ground
  ,                                       !- Number of Vertices
  42.6237654, -36.6687354, 0,             !- X,Y,Z Vertex 1 {m}
  42.6237654, -36.6687354, 2.4384,        !- X,Y,Z Vertex 2 {m}
  42.6237654, -42.6237654, 2.4384,        !- X,Y,Z Vertex 3 {m}
  42.6237654, -42.6237654, 0;             !- X,Y,Z Vertex 4 {m}

OS:AdditionalProperties,
  {4699588b-f4df-4ab4-af1c-b8134adc25f4}, !- Handle
  {f164f288-97a2-4a11-a6dc-f3c96c4b95bf}, !- Object Name
  Length,                                 !- Feature Name 1
  Double,                                 !- Feature Data Type 1
  19.537500000000001,                     !- Feature Value 1
  Azimuth,                                !- Feature Name 2
  Integer,                                !- Feature Data Type 2
  90,                                     !- Feature Value 2
  Tilt,                                   !- Feature Name 3
  Double,                                 !- Feature Data Type 3
  90,                                     !- Feature Value 3
  SurfaceType,                            !- Feature Name 4
  String,                                 !- Feature Data Type 4
  Wall;                                   !- Feature Value 4

OS:Construction,
  {c146a741-4c25-4ce2-9210-26f268df0974}, !- Handle
  Wall2 construction,                     !- Name
  ,                                       !- Surface Rendering Name
  {e43b1c50-037b-4d67-be95-ec21c479d489}, !- Layer 1
  {be732055-03b9-4592-8e77-6d2d8144d87e}, !- Layer 2
  {57589e07-bbae-423f-8c75-8edc584e62c6}, !- Layer 3
  {21328816-21e9-4340-a29f-b8de4e2aabd8}; !- Layer 4

OS:Surface,
  {015e5b7d-4a29-4c0f-b2aa-73aa3ab54536}, !- Handle
  Wall3,                                  !- Name
  Wall,                                   !- Surface Type
  {3161b7a7-50dd-4d27-8f91-e941e8f56d25}, !- Construction Name
  {1d681e24-b6a0-4fa3-a50d-7906feaccd9c}, !- Space Name
  Outdoors,                               !- Outside Boundary Condition
  ,                                       !- Outside Boundary Condition Object
  SunExposed,                             !- Sun Exposure
  WindExposed,                            !- Wind Exposure
  ,                                       !- View Factor to Ground
  ,                                       !- Number of Vertices
  -29.6289219715142, -42.6237654, 0,      !- X,Y,Z Vertex 1 {m}
  -29.6289219715142, -42.6237654, 2.4384, !- X,Y,Z Vertex 2 {m}
  -40.7807919715142, -42.6237654, 2.4384, !- X,Y,Z Vertex 3 {m}
  -40.7807919715142, -42.6237654, 0;      !- X,Y,Z Vertex 4 {m}

OS:AdditionalProperties,
  {b5da44dd-3e4d-4822-9694-7c599991b087}, !- Handle
  {015e5b7d-4a29-4c0f-b2aa-73aa3ab54536}, !- Object Name
  Length,                                 !- Feature Name 1
  Double,                                 !- Feature Data Type 1
  36.587499999999999,                     !- Feature Value 1
  Azimuth,                                !- Feature Name 2
  Integer,                                !- Feature Data Type 2
  180,                                    !- Feature Value 2
  Tilt,                                   !- Feature Name 3
  Double,                                 !- Feature Data Type 3
  90,                                     !- Feature Value 3
  SurfaceType,                            !- Feature Name 4
  String,                                 !- Feature Data Type 4
  Wall;                                   !- Feature Value 4

OS:Construction,
  {3161b7a7-50dd-4d27-8f91-e941e8f56d25}, !- Handle
  Wall3 construction,                     !- Name
  ,                                       !- Surface Rendering Name
  {e43b1c50-037b-4d67-be95-ec21c479d489}, !- Layer 1
  {be732055-03b9-4592-8e77-6d2d8144d87e}, !- Layer 2
  {57589e07-bbae-423f-8c75-8edc584e62c6}, !- Layer 3
  {21328816-21e9-4340-a29f-b8de4e2aabd8}; !- Layer 4

OS:Surface,
  {71a699ad-748d-425b-be73-f26d9791467d}, !- Handle
  Wall4,                                  !- Name
  Wall,                                   !- Surface Type
  {6572ffad-4d60-4e36-8596-33ffbb62c25b}, !- Construction Name
  {1d681e24-b6a0-4fa3-a50d-7906feaccd9c}, !- Space Name
  Outdoors,                               !- Outside Boundary Condition
  ,                                       !- Outside Boundary Condition Object
  SunExposed,                             !- Sun Exposure
  WindExposed,                            !- Wind Exposure
  ,                                       !- View Factor to Ground
  ,                                       !- Number of Vertices
  -42.6237654, 36.6687354, 0,             !- X,Y,Z Vertex 1 {m}
  -42.6237654, 36.6687354, 2.4384,        !- X,Y,Z Vertex 2 {m}
  -42.6237654, 42.6237654, 2.4384,        !- X,Y,Z Vertex 3 {m}
  -42.6237654, 42.6237654, 0;             !- X,Y,Z Vertex 4 {m}

OS:AdditionalProperties,
  {f9f0b7bf-ab49-4c8f-ad97-62226ea19fe7}, !- Handle
  {71a699ad-748d-425b-be73-f26d9791467d}, !- Object Name
  Length,                                 !- Feature Name 1