
OS:Version,
  {a42646b4-ee0d-4f19-9f59-2eb0fc1e1fd3}, !- Handle
  3.9.0;                                  !- Version Identifier

OS:SimulationControl,
  {508c64b3-821f-42d6-84c5-ea9e873df7af}, !- Handle
  ,                                       !- Do Zone Sizing Calculation
  ,                                       !- Do System Sizing Calculation
  ,                                       !- Do Plant Sizing Calculation
  No;                                     !- Run Simulation for Sizing Periods

OS:Timestep,
  {159e7e8b-4f8c-408a-bdd9-3f99b8ca3fce}, !- Handle
  1;                                      !- Number of Timesteps per Hour

OS:ShadowCalculation,
  {7bebe28c-3fa1-4de0-b9e5-17d76225be26}, !- Handle
  PolygonClipping,                        !- Shading Calculation Method
  ,                                       !- Shading Calculation Update Frequency Method
  20,                                     !- Shading Calculation Update Frequency
  200,                                    !- Maximum Figures in Shadow Overlap Calculations
  ,                                       !- Polygon Clipping Algorithm
  512,                                    !- Pixel Counting Resolution
  ,                                       !- Sky Diffuse Modeling Algorithm
  No,                                     !- Output External Shading Calculation Results
  No,                                     !- Disable Self-Shading Within Shading Zone Groups
  No;                                     !- Disable Self-Shading From Shading Zone Groups to Other Zones

OS:SurfaceConvectionAlgorithm:Outside,
  {2912a225-8c5f-49c9-b9a5-45b68505d2fd}, !- Handle
  DOE-2;                                  !- Algorithm

OS:SurfaceConvectionAlgorithm:Inside,
  {2ec69928-2204-48eb-bf35-0bb9532597b8}, !- Handle
  TARP;                                   !- Algorithm

OS:ZoneCapacitanceMultiplier:ResearchSpecial,
  {1012bca6-00ef-4652-a1a4-1f50c482f2fa}, !- Handle
  7,                                      !- Temperature Capacity Multiplier
  15,                                     !- Humidity Capacity Multiplier
  ;                                       !- Carbon Dioxide Capacity Multiplier

OS:ConvergenceLimits,
  {79d65ee7-5b13-4073-baa4-32302940af57}, !- Handle
  0;                                      !- Minimum System Timestep {minutes}

OS:RunPeriod,
  {ef45e7db-7d23-4ff2-9b6a-32d6da5fff41}, !- Handle
  Run Period 1,                           !- Name
  1,                                      !- Begin Month
  1,                                      !- Begin Day of Month
  12,                                     !- End Month
  31,                                     !- End Day of Month
  ,                                       !- Use Weather File Holidays and Special Days
  ,                                       !- Use Weather File Daylight Saving Period
  ,                                       !- Apply Weekend Holiday Rule
  ,                                       !- Use Weather File Rain Indicators
  ,                                       !- Use Weather File Snow Indicators
  ;                                       !- Number of Times Runperiod to be Repeated

OS:PerformancePrecisionTradeoffs,
  {f8e4b91d-6769-44de-b243-d2f8aa8925a6}, !- Handle
  ,                                       !- Use Coil Direct Solutions
  CarrollMRT;                             !- Zone Radiant Exchange Algorithm

OS:WeatherFile,
  {dbe37bc0-1a9e-4d77-80f4-0aa4dd8bfdf5}, !- Handle
  Buffalo Niagara Intl Ap,                !- City
  NY,                                     !- State Province Region
  USA,                                    !- Country
  TMY3,                                   !- Data Source
  725280,                                 !- WMO Number
  42.93,                                  !- Latitude {deg}
  -78.73,                                 !- Longitude {deg}
  -5,                                     !- Time Zone {hr}
  215,                                    !- Elevation {m}
  /Users/nmoore/github/urbanopt-example-geojson-project/example_project/weather/USA_NY_Buffalo-Greater.Buffalo.Intl.AP.725280_TMY3.epw, !- Url
  6B50E0FF,                               !- Checksum
  ,                                       !- Start Date Actual Year
  Sunday;                                 !- Start Day of Week

OS:YearDescription,
  {8c8d8f17-04fa-4d04-8a9e-5aa9d9f2636c}, !- Handle
  2007,                                   !- Calendar Year
  ,                                       !- Day of Week for Start Day
  ;                                       !- Is Leap Year

OS:Site,
  {a0935d19-9d80-4800-bcb3-8d57789a273f}, !- Handle
  Buffalo Niagara Intl Ap_NY,             !- Name
  42.93,                                  !- Latitude {deg}
  -78.73,                                 !- Longitude {deg}
  -5,                                     !- Time Zone {hr}
  215,                                    !- Elevation {m}
  Suburbs,                                !- Terrain
  Yes;                                    !- Keep Site Location Information

OS:RunPeriodControl:DaylightSavingTime,
  {b9f8d3a4-8ed8-4399-bb7d-03ac9ae05b0e}, !- Handle
  Mar 12,                                 !- Start Date
  Nov 5;                                  !- End Date

OS:Site:GroundTemperature:Shallow,
  {2b2f34cb-9cba-4242-b417-5ac4e3732705}, !- Handle
  4.30207395723828,                       !- January Surface Ground Temperature {C}
  2.29327249652502,                       !- February Surface Ground Temperature {C}
  2.13240047156047,                       !- March Surface Ground Temperature {C}
  3.08567940719286,                       !- April Surface Ground Temperature {C}
  6.91256312497526,                       !- May Surface Ground Temperature {C}
  10.7216195949507,                       !- June Surface Ground Temperature {C}
  14.0238679822574,                       !- July Surface Ground Temperature {C}
  16.1157611184724,                       !- August Surface Ground Temperature {C}
  16.2934789303462,                       !- September Surface Ground Temperature {C}
  14.5920754632847,                       !- October Surface Ground Temperature {C}
  11.374036348653,                        !- November Surface Ground Temperature {C}
  7.68182621661674;                       !- December Surface Ground Temperature {C}

OS:ThermalZone,
  {1062051f-980b-4afe-b4f8-a5be785c94c2}, !- Handle
  conditioned space,                      !- Name
  1,                                      !- Multiplier
  ,                                       !- Ceiling Height {m}
  346.03186535424,                        !- Volume {m3}
  ,                                       !- Floor Area {m2}
  ,                                       !- Zone Inside Convection Algorithm
  ,                                       !- Zone Outside Convection Algorithm
  ,                                       !- Zone Conditioning Equipment List Name
  {7c0924b1-5113-4835-b5ee-a9701003001d}, !- Zone Air Inlet Port List
  {b067ea02-9a4e-47e4-bdab-51933e24cdba}, !- Zone Air Exhaust Port List
  {4dc4d87d-f62d-48a4-9554-cee8cda09915}, !- Zone Air Node Name
  {e8099f94-2ba6-4b2b-81b0-0d7cd0aae117}, !- Zone Return Air Port List
  ,                                       !- Primary Daylighting Control Name
  ,                                       !- Fraction of Zone Controlled by Primary Daylighting Control
  ,                                       !- Secondary Daylighting Control Name
  ,                                       !- Fraction of Zone Controlled by Secondary Daylighting Control
  ,                                       !- Illuminance Map Name
  ,                                       !- Group Rendering Name
  {d0ffbeb3-46bc-4fc5-a0e0-df72e6977ffd}, !- Thermostat Name
  No;                                     !- Use Ideal Air Loads

OS:Node,
  {be0f2eed-7f7c-46a2-804d-d7e0104f8251}, !- Handle
  Node 1,                                 !- Name
  {4dc4d87d-f62d-48a4-9554-cee8cda09915}, !- Inlet Port
  ;                                       !- Outlet Port

OS:Connection,
  {4dc4d87d-f62d-48a4-9554-cee8cda09915}, !- Handle
  {1062051f-980b-4afe-b4f8-a5be785c94c2}, !- Source Object
  11,                                     !- Outlet Port
  {be0f2eed-7f7c-46a2-804d-d7e0104f8251}, !- Target Object
  2;                                      !- Inlet Port

OS:PortList,
  {7c0924b1-5113-4835-b5ee-a9701003001d}, !- Handle
  {1062051f-980b-4afe-b4f8-a5be785c94c2}, !- HVAC Component
  {6812590a-000a-4c21-b8a0-774855a801c2}; !- Port 1

OS:PortList,
  {b067ea02-9a4e-47e4-bdab-51933e24cdba}, !- Handle
  {1062051f-980b-4afe-b4f8-a5be785c94c2}; !- HVAC Component

OS:PortList,
  {e8099f94-2ba6-4b2b-81b0-0d7cd0aae117}, !- Handle
  {1062051f-980b-4afe-b4f8-a5be785c94c2}, !- HVAC Component
  {b4e97851-4b8a-4af2-a0b9-97cb576d0cf3}; !- Port 1

OS:Sizing:Zone,
  {ac399a6e-c4b4-4bf7-91f2-e45a7fb0d561}, !- Handle
  {1062051f-980b-4afe-b4f8-a5be785c94c2}, !- Zone or ZoneList Name
  SupplyAirTemperature,                   !- Zone Cooling Design Supply Air Temperature Input Method
  14,                                     !- Zone Cooling Design Supply Air Temperature {C}
  11.11,                                  !- Zone Cooling Design Supply Air Temperature Difference {deltaC}
  SupplyAirTemperature,                   !- Zone Heating Design Supply Air Temperature Input Method
  40,                                     !- Zone Heating Design Supply Air Temperature {C}
  11.11,                                  !- Zone Heating Design Supply Air Temperature Difference {deltaC}
  0.0085,                                 !- Zone Cooling Design Supply Air Humidity Ratio {kg-H2O/kg-air}
  0.008,                                  !- Zone Heating Design Supply Air Humidity Ratio {kg-H2O/kg-air}
  ,                                       !- Zone Heating Sizing Factor
  ,                                       !- Zone Cooling Sizing Factor
  DesignDay,                              !- Cooling Design Air Flow Method
  ,                                       !- Cooling Design Air Flow Rate {m3/s}
  ,                                       !- Cooling Minimum Air Flow per Zone Floor Area {m3/s-m2}
  ,                                       !- Cooling Minimum Air Flow {m3/s}
  ,                                       !- Cooling Minimum Air Flow Fraction
  DesignDay,                              !- Heating Design Air Flow Method
  ,                                       !- Heating Design Air Flow Rate {m3/s}
  ,                                       !- Heating Maximum Air Flow per Zone Floor Area {m3/s-m2}
  ,                                       !- Heating Maximum Air Flow {m3/s}
  ,                                       !- Heating Maximum Air Flow Fraction
  No,                                     !- Account for Dedicated Outdoor Air System
  NeutralSupplyAir,                       !- Dedicated Outdoor Air System Control Strategy
  autosize,                               !- Dedicated Outdoor Air Low Setpoint Temperature for Design {C}
  autosize,                               !- Dedicated Outdoor Air High Setpoint Temperature for Design {C}
  Sensible Load Only No Latent Load,      !- Zone Load Sizing Method
  HumidityRatioDifference,                !- Zone Latent Cooling Design Supply Air Humidity Ratio Input Method
  ,                                       !- Zone Dehumidification Design Supply Air Humidity Ratio {kgWater/kgDryAir}
  0.005,                                  !- Zone Cooling Design Supply Air Humidity Ratio Difference {kgWater/kgDryAir}
  HumidityRatioDifference,                !- Zone Latent Heating Design Supply Air Humidity Ratio Input Method
  ,                                       !- Zone Humidification Design Supply Air Humidity Ratio {kgWater/kgDryAir}
  0.005,                                  !- Zone Humidification Design Supply Air Humidity Ratio Difference {kgWater/kgDryAir}
  ,                                       !- Zone Humidistat Dehumidification Set Point Schedule Name
  ,                                       !- Zone Humidistat Humidification Set Point Schedule Name
  ,                                       !- Design Zone Air Distribution Effectiveness in Cooling Mode
  ,                                       !- Design Zone Air Distribution Effectiveness in Heating Mode
  ,                                       !- Design Zone Secondary Recirculation Fraction {dimensionless}
  ,                                       !- Design Minimum Zone Ventilation Efficiency {dimensionless}
  Coincident;                             !- Sizing Option

OS:ZoneHVAC:EquipmentList,
  {a44d268c-3399-4897-931b-8f78ce456d09}, !- Handle
  Zone HVAC Equipment List 1,             !- Name
  {1062051f-980b-4afe-b4f8-a5be785c94c2}, !- Thermal Zone
  ,                                       !- Load Distribution Scheme
  {5c4931ca-9c0d-459b-85e8-1422ec49cf75}, !- Zone Equipment 1
  1,                                      !- Zone Equipment Cooling Sequence 1
  1,                                      !- Zone Equipment Heating or No-Load Sequence 1
  {18969303-fff5-45f2-b717-ab1a75f82ed3}, !- Zone Equipment Sequential Cooling Fraction Schedule Name 1
  {2fb9c0eb-8373-4cfe-b2a6-eff89cf4407c}; !- Zone Equipment Sequential Heating Fraction Schedule Name 1

OS:AdditionalProperties,
  {640d24ce-20f1-48b0-ab85-64c301bc1df5}, !- Handle
  {1062051f-980b-4afe-b4f8-a5be785c94c2}, !- Object Name
  ObjectType,                             !- Feature Name 1
  String,                                 !- Feature Data Type 1
  conditioned space;                      !- Feature Value 1

OS:Space,
  {9c520ec7-0993-4772-84ab-658c5c65feb5}, !- Handle
  conditioned space 1,                    !- Name
  ,                                       !- Space Type Name
  ,                                       !- Default Construction Set Name
  ,                                       !- Default Schedule Set Name
  ,                                       !- Direction of Relative North {deg}
  ,                                       !- X Origin {m}
  ,                                       !- Y Origin {m}
  ,                                       !- Z Origin {m}
  ,                                       !- Building Story Name
  {1062051f-980b-4afe-b4f8-a5be785c94c2}, !- Thermal Zone Name
  ,                                       !- Part of Total Floor Area
  ,                                       !- Design Specification Outdoor Air Object Name
  ,                                       !- Building Unit Name
  346.03186535424;                        !- Volume {m3}

OS:Schedule:Ruleset,
  {fde4936d-0d15-4294-871e-bb739da43c0b}, !- Handle
  heating setpoint,                       !- Name
  {9f60f009-49d5-41e0-a1a9-32dec6e302c5}, !- Schedule Type Limits Name
  {2c572979-cbdb-4234-bc96-96082b1a5988}; !- Default Day Schedule Name

OS:Schedule:Day,
  {2c572979-cbdb-4234-bc96-96082b1a5988}, !- Handle
  heating setpoint default day,           !- Name
  {9f60f009-49d5-41e0-a1a9-32dec6e302c5}, !- Schedule Type Limits Name
  ,                                       !- Interpolate to Timestep
  24,                                     !- Hour 1
  0,                                      !- Minute 1
  0;                                      !- Value Until Time 1

OS:Schedule:Rule,
  {a434eec4-2646-43cc-a1bc-40ffbb1edd00}, !- Handle
  heating setpoint allday rule,           !- Name
  {fde4936d-0d15-4294-871e-bb739da43c0b}, !- Schedule Ruleset Name
  0,                                      !- Rule Order
  {70299f4c-29f6-4e41-a1a9-66ad057e1c4b}, !- Day Schedule Name
  Yes,                                    !- Apply Sunday
  Yes,                                    !- Apply Monday
  Yes,                                    !- Apply Tuesday
  Yes,                                    !- Apply Wednesday
  Yes,                                    !- Apply Thursday
  Yes,                                    !- Apply Friday
  Yes,                                    !- Apply Saturday
  DateRange,                              !- Date Specification Type
  1,                                      !- Start Month
  1,                                      !- Start Day
  12,                                     !- End Month
  31;                                     !- End Day

OS:Schedule:Day,
  {70299f4c-29f6-4e41-a1a9-66ad057e1c4b}, !- Handle
  heating setpoint day,                   !- Name
  {9f60f009-49d5-41e0-a1a9-32dec6e302c5}, !- Schedule Type Limits Name
  ,                                       !- Interpolate to Timestep
  24,                                     !- Hour 1
  0,                                      !- Minute 1
  20;                                     !- Value Until Time 1

OS:Schedule:Ruleset,
  {b3226da1-1ca1-4382-9f11-6a82b1927155}, !- Handle
  cooling setpoint,                       !- Name
  {9f60f009-49d5-41e0-a1a9-32dec6e302c5}, !- Schedule Type Limits Name
  {ae7fff15-a5c9-4744-92f4-1cb078a81199}; !- Default Day Schedule Name

OS:Schedule:Day,
  {ae7fff15-a5c9-4744-92f4-1cb078a81199}, !- Handle
  cooling setpoint default day,           !- Name
  {9f60f009-49d5-41e0-a1a9-32dec6e302c5}, !- Schedule Type Limits Name
  ,                                       !- Interpolate to Timestep
  24,                                     !- Hour 1
  0,                                      !- Minute 1
  0;                                      !- Value Until Time 1

OS:Schedule:Rule,
  {b0418e9e-227f-49e2-8eb3-7eed99d27c8d}, !- Handle
  cooling setpoint allday rule,           !- Name
  {b3226da1-1ca1-4382-9f11-6a82b1927155}, !- Schedule Ruleset Name
  0,                                      !- Rule Order
  {5e3790e7-1589-4cf3-aa6f-4d5b2334db22}, !- Day Schedule Name
  Yes,                                    !- Apply Sunday
  Yes,                                    !- Apply Monday
  Yes,                                    !- Apply Tuesday
  Yes,                                    !- Apply Wednesday
  Yes,                                    !- Apply Thursday
  Yes,                                    !- Apply Friday
  Yes,                                    !- Apply Saturday
  DateRange,                              !- Date Specification Type
  1,                                      !- Start Month
  1,                                      !- Start Day
  12,                                     !- End Month
  31;                                     !- End Day

OS:Schedule:Day,
  {5e3790e7-1589-4cf3-aa6f-4d5b2334db22}, !- Handle
  cooling setpoint day,                   !- Name
  {9f60f009-49d5-41e0-a1a9-32dec6e302c5}, !- Schedule Type Limits Name
  ,                                       !- Interpolate to Timestep
  24,                                     !- Hour 1
  0,                                      !- Minute 1
  25.5555555555556;                       !- Value Until Time 1

OS:ThermostatSetpoint:DualSetpoint,
  {d0ffbeb3-46bc-4fc5-a0e0-df72e6977ffd}, !- Handle
  conditioned space temperature setpoint, !- Name
  {fde4936d-0d15-4294-871e-bb739da43c0b}, !- Heating Setpoint Temperature Schedule Name
  {b3226da1-1ca1-4382-9f11-6a82b1927155}, !- Cooling Setpoint Temperature Schedule Name
  0;                                      !- Temperature Difference Between Cutout And Setpoint {deltaC}

OS:ScheduleTypeLimits,
  {9f60f009-49d5-41e0-a1a9-32dec6e302c5}, !- Handle
  Temperature,                            !- Name
  ,                                       !- Lower Limit Value
  ,                                       !- Upper Limit Value
  Continuous,                             !- Numeric Type
  Temperature;                            !- Unit Type

OS:Surface,
  {f121f945-7d17-468d-8d50-1373b6669e97}, !- Handle
  Roof1,                                  !- Name
  RoofCeiling,                            !- Surface Type
  {6a774bd8-a95f-4773-b1b0-b0b6d7a1f0d7}, !- Construction Name
  {9c520ec7-0993-4772-84ab-658c5c65feb5}, !- Space Name
  Outdoors,                               !- Outside Boundary Condition
  ,                                       !- Outside Boundary Condition Object
  SunExposed,                             !- Sun Exposure
  WindExposed,                            !- Wind Exposure
  ,                                       !- View Factor to Ground
  ,                                       !- Number of Vertices
  -27.1507941683368, 33.2208099683368, 2.4384, !- X,Y,Z Vertex 1 {m}
  -27.1507941683368, 25.2543851312596, 6.42161241853859, !- X,Y,Z Vertex 2 {m}
  -18.2440604316632, 25.2543851312596, 6.42161241853859, !- X,Y,Z Vertex 3 {m}
  -18.2440604316632, 33.2208099683368, 2.4384; !- X,Y,Z Vertex 4 {m}

OS:AdditionalProperties,
  {ce8a9602-1767-41e5-bf1e-e5aa9150be4a}, !- Handle
  {f121f945-7d17-468d-8d50-1373b6669e97}, !- Object Name
  Length,                                 !- Feature Name 1
  Double,                                 !- Feature Data Type 1
  29.221567377538118,                     !- Feature Value 1
  Width,                                  !- Feature Name 2
  Double,                                 !- Feature Data Type 2
  29.221567377538118,                     !- Feature Value 2
  Azimuth,                                !- Feature Name 3
  Integer,                                !- Feature Data Type 3
  0,                                      !- Feature Value 3
  Tilt,                                   !- Feature Name 4
  Double,                                 !- Feature Data Type 4
  0.5,                                    !- Feature Value 4
  SurfaceType,                            !- Feature Name 5
  String,                                 !- Feature Data Type 5
  Roof;                                   !- Feature Value 5

OS:Material,
  {98c50708-261a-4500-a2f6-7651eb12cbf7}, !- Handle
  asphalt or fiberglass shingles,         !- Name
  Rough,                                  !- Roughness
  0.00635,                                !- Thickness {m}
  0.162714,                               !- Conductivity {W/m-K}
  1121.4,                                 !- Density {kg/m3}
  1465.45,                                !- Specific Heat {J/kg-K}
  0.9,                                    !- Thermal Absorptance
  0.85,                                   !- Solar Absorptance
  0.85;                                   !- Visible Absorptance

OS:Material,
  {31e319d3-81aa-4011-a440-d69ba953b09d}, !- Handle
  roof stud and cavity,                   !- Name
  Rough,                                  !- Roughness
  0.0889,                                 !- Thickness {m}
  0.468249472857624,                      !- Conductivity {W/m-K}
  50.32683,                               !- Density {kg/m3}
  1063.80987585548,                       !- Specific Heat {J/kg-K}
  0.9,                                    !- Thermal Absorptance
  0.7,                                    !- Solar Absorptance
  0.7;                                    !- Visible Absorptance

OS:Material,
  {a9acd26a-7cb5-4b0e-839e-a26e15eaf322}, !- Handle
  gypsum board,                           !- Name
  Rough,                                  !- Roughness
  0.00254,                                !- Thickness {m}
  0.1602906,                              !- Conductivity {W/m-K}
  801,                                    !- Density {kg/m3}
  837.4,                                  !- Specific Heat {J/kg-K}
  0.9,                                    !- Thermal Absorptance
  0.6,                                    !- Solar Absorptance
  0.6;                                    !- Visible Absorptance

OS:Construction,
  {6a774bd8-a95f-4773-b1b0-b0b6d7a1f0d7}, !- Handle
  Roof1 construction,                     !- Name
  ,                                       !- Surface Rendering Name
  {98c50708-261a-4500-a2f6-7651eb12cbf7}, !- Layer 1
  {31e319d3-81aa-4011-a440-d69ba953b09d}, !- Layer 2
  {a9acd26a-7cb5-4b0e-839e-a26e15eaf322}; !- Layer 3

OS:Surface,
  {ca55ec8b-e1cc-4bb8-a9b7-54e53db1250c}, !- Handle
  Roof2,                                  !- Name
  RoofCeiling,                            !- Surface Type
  {923b7b28-6372-4a69-a992-24b315422827}, !- Construction Name
  {9c520ec7-0993-4772-84ab-658c5c65feb5}, !- Space Name
  Outdoors,                               !- Outside Boundary Condition
  ,                                       !- Outside Boundary Condition Object
  SunExposed,                             !- Sun Exposure
  WindExposed,                            !- Wind Exposure
  ,                                       !- View Factor to Ground
  ,                                       !- Number of Vertices
  -24.3140762316632, -33.2208099683368, 2.4384, !- X,Y,Z Vertex 1 {m}
  -24.3140762316632, -25.2543851312596, 6.42161241853859, !- X,Y,Z Vertex 2 {m}
  -33.2208099683368, -25.2543851312596, 6.42161241853859, !- X,Y,Z Vertex 3 {m}
  -33.2208099683368, -33.2208099683368, 2.4384; !- X,Y,Z Vertex 4 {m}

OS:AdditionalProperties,
  {f438172c-df25-46f0-a097-c837f1f72971}, !- Handle
  {ca55ec8b-e1cc-4bb8-a9b7-54e53db1250c}, !- Object Name
  Length,                                 !- Feature Name 1
  Double,                                 !- Feature Data Type 1
  29.221567377538118,                     !- Feature Value 1
  Width,                                  !- Feature Name 2
  Double,                                 !- Feature Data Type 2
  29.221567377538118,                     !- Feature Value 2
  Azimuth,                                !- Feature Name 3
  Integer,                                !- Feature Data Type 3
  180,                                    !- Feature Value 3
  Tilt,                                   !- Feature Name 4
  Double,                                 !- Feature Data Type 4
  0.5,                                    !- Feature Value 4
  SurfaceType,                            !- Feature Name 5
  String,                                 !- Feature Data Type 5
  Roof;                                   !- Feature Value 5

OS:Construction,
  {923b7b28-6372-4a69-a992-24b315422827}, !- Handle
  Roof2 construction,                     !- Name
  ,                                       !- Surface Rendering Name
  {98c50708-261a-4500-a2f6-7651eb12cbf7}, !- Layer 1
  {31e319d3-81aa-4011-a440-d69ba953b09d}, !- Layer 2
  {a9acd26a-7cb5-4b0e-839e-a26e15eaf322}; !- Layer 3

OS:Surface,
  {6f257f38-2a68-4457-8bde-63dc0616ae57}, !- Handle
  Wall1,                                  !- Name
  Wall,                                   !- Surface Type
  {f838c02a-5f81-46b4-ad91-051d649f424e}, !- Construction Name
  {9c520ec7-0993-4772-84ab-658c5c65feb5}, !- Space Name
  Outdoors,                               !- Outside Boundary Condition
  ,                                       !- Outside Boundary Condition Object
  SunExposed,                             !- Sun Exposure
  WindExposed,                            !- Wind Exposure
  ,                                       !- View Factor to Ground
  ,                                       !- Number of Vertices
  -32.2917795683368, 33.2208099683368, 0, !- X,Y,Z Vertex 1 {m}
  -32.2917795683368, 33.2208099683368, 4.8768, !- X,Y,Z Vertex 2 {m}
  -28.0798245683368, 33.2208099683368, 4.8768, !- X,Y,Z Vertex 3 {m}
  -28.0798245683368, 33.2208099683368, 0; !- X,Y,Z Vertex 4 {m}

OS:AdditionalProperties,
  {4c8fa9ca-43be-4808-9c50-fb46f8a56908}, !- Handle
  {6f257f38-2a68-4457-8bde-63dc0616ae57}, !- Object Name
  Length,                                 !- Feature Name 1
  Double,                                 !- Feature Data Type 1
  13.81875,                               !- Feature Value 1
  Azimuth,                                !- Feature Name 2
  Integer,                                !- Feature Data Type 2
  0,                                      !- Feature Value 2
  Tilt,                                   !- Feature Name 3
  Double,                                 !- Feature Data Type 3
  90,                                     !- Feature Value 3
  SurfaceType,                            !- Feature Name 4
  String,                                 !- Feature Data Type 4
  Wall;                                   !- Feature Value 4

OS:Material,
  {b3cc3702-5239-4453-ab1e-ecc5ffd72221}, !- Handle
  wood siding,                            !- Name
  Rough,                                  !- Roughness
  0.0254,                                 !- Thickness {m}
  0.1024175,                              !- Conductivity {W/m-K}
  544.68,                                 !- Density {kg/m3}
  1172.36,                                !- Specific Heat {J/kg-K}
  0.9,                                    !- Thermal Absorptance
  0.7,                                    !- Solar Absorptance
  0.7;                                    !- Visible Absorptance

OS:Material,
  {bc0c3813-2c00-4727-aa99-52d048a9af19}, !- Handle
  osb sheathing 0.5 in.,                  !- Name
  Rough,                                  !- Roughness
  0.0127,                                 !- Thickness {m}
  0.1154577,                              !- Conductivity {W/m-K}
  512.64,                                 !- Density {kg/m3}
  1214.23,                                !- Specific Heat {J/kg-K}
  0.9,                                    !- Thermal Absorptance
  0.7,                                    !- Solar Absorptance
  0.7;                                    !- Visible Absorptance

OS:Material,
  {9551259b-028d-42e6-8a39-a18119087718}, !- Handle
  wall stud and cavity,                   !- Name
  Rough,                                  !- Roughness
  0.1397,                                 !- Thickness {m}
  0.0929021674204099,                     !- Conductivity {W/m-K}
  139.0536,                               !- Density {kg/m3}
  1170.23755760369,                       !- Specific Heat {J/kg-K}
  0.9,                                    !- Thermal Absorptance
  0.7,                                    !- Solar Absorptance