
OS:Version,
  {f75846c9-7d8e-42c4-8cad-c0e680006d2c}, !- Handle
  3.10.0;                                 !- Version Identifier

OS:SimulationControl,
  {ec904b41-70a1-4555-be84-4ea6d02b6464}, !- Handle
  ,                                       !- Do Zone Sizing Calculation
  ,                                       !- Do System Sizing Calculation
  ,                                       !- Do Plant Sizing Calculation
  No;                                     !- Run Simulation for Sizing Periods

OS:Timestep,
  {8074d5ef-448f-45ef-bd14-e86f120eecbb}, !- Handle
  1;                                      !- Number of Timesteps per Hour

OS:ShadowCalculation,
  {709f0028-5197-4c4f-a261-763043d0d230}, !- Handle
  PolygonClipping,                        !- Shading Calculation Method
  ,                                       !- Shading Calculation Update Frequency Method
  20,                                     !- Shading Calculation Update Frequency
  200,                                    !- Maximum Figures in Shadow Overlap Calculations
  ,                                       !- Polygon Clipping Algorithm
  512,                                    !- Pixel Counting Resolution
  ,                                       !- Sky Diffuse Modeling Algorithm
  No,                                     !- Output External Shading Calculation Results
  No,                                     !- Disable Self-Shading Within Shading Zone Groups
  No;                                     !- Disable Self-Shading From Shading Zone Groups to Other Zones

OS:SurfaceConvectionAlgorithm:Outside,
  {c0d97404-0174-450d-8357-139cf60cf0c1}, !- Handle
  DOE-2;                                  !- Algorithm

OS:SurfaceConvectionAlgorithm:Inside,
  {7d7a913c-1e9c-4c84-a0b6-af953113b5d9}, !- Handle
  TARP;                                   !- Algorithm

OS:ZoneCapacitanceMultiplier:ResearchSpecial,
  {45d9e48b-b678-47c1-9c3a-bb74d153034e}, !- Handle
  7,                                      !- Temperature Capacity Multiplier
  15,                                     !- Humidity Capacity Multiplier
  ;                                       !- Carbon Dioxide Capacity Multiplier

OS:ConvergenceLimits,
  {9e7a0f9e-a962-4af8-8805-f50a47add16e}, !- Handle
  0;                                      !- Minimum System Timestep {minutes}

OS:RunPeriod,
  {eca22a42-9208-4001-84d0-3879e4fbc8b0}, !- Handle
  Run Period 1,                           !- Name
  1,                                      !- Begin Month
  1,                                      !- Begin Day of Month
  12,                                     !- End Month
  31,                                     !- End Day of Month
  ,                                       !- Use Weather File Holidays and Special Days
  ,                                       !- Use Weather File Daylight Saving Period
  ,                                       !- Apply Weekend Holiday Rule
  ,                                       !- Use Weather File Rain Indicators
  ,                                       !- Use Weather File Snow Indicators
  ;                                       !- Number of Times Runperiod to be Repeated

OS:PerformancePrecisionTradeoffs,
  {f91c313b-f4c6-4db3-b43c-9bd7ca4734e5}, !- Handle
  ,                                       !- Use Coil Direct Solutions
  CarrollMRT;                             !- Zone Radiant Exchange Algorithm

OS:WeatherFile,
  {ed8c944a-c873-40c5-b0a2-675700b8f127}, !- Handle
  Buffalo Niagara Intl Ap,                !- City
  NY,                                     !- State Province Region
  USA,                                    !- Country
  TMY3,                                   !- Data Source
  725280,                                 !- WMO Number
  42.93,                                  !- Latitude {deg}
  -78.73,                                 !- Longitude {deg}
  -5,                                     !- Time Zone {hr}
  215,                                    !- Elevation {m}
  /Users/nmoore/github/urbanopt-example-geojson-project/example_project/weather/USA_NY_Buffalo-Greater.Buffalo.Intl.AP.725280_TMY3.epw, !- Url
  6B50E0FF,                               !- Checksum
  ,                                       !- Start Date Actual Year
  Sunday;                                 !- Start Day of Week

OS:YearDescription,
  {79cdad20-17e8-4676-b5fa-be059d4c7298}, !- Handle
  2007,                                   !- Calendar Year
  ,                                       !- Day of Week for Start Day
  ;                                       !- Is Leap Year

OS:Site,
  {89c9fe52-1a8b-4cbe-854c-2e30d879eb5d}, !- Handle
  Buffalo Niagara Intl Ap_NY,             !- Name
  42.93,                                  !- Latitude {deg}
  -78.73,                                 !- Longitude {deg}
  -5,                                     !- Time Zone {hr}
  215,                                    !- Elevation {m}
  Suburbs,                                !- Terrain
  Yes;                                    !- Keep Site Location Information

OS:RunPeriodControl:DaylightSavingTime,
  {98372405-94f5-4e2f-a2f7-7ea316d0d1b6}, !- Handle
  Mar 12,                                 !- Start Date
  Nov 5;                                  !- End Date

OS:Site:GroundTemperature:Shallow,
  {fd39baf2-4688-4e76-8c5f-fa54b0548e03}, !- Handle
  4.30207395723828,                       !- January Surface Ground Temperature {C}
  2.29327249652502,                       !- February Surface Ground Temperature {C}
  2.13240047156047,                       !- March Surface Ground Temperature {C}
  3.08567940719286,                       !- April Surface Ground Temperature {C}
  6.91256312497526,                       !- May Surface Ground Temperature {C}
  10.7216195949507,                       !- June Surface Ground Temperature {C}
  14.0238679822574,                       !- July Surface Ground Temperature {C}
  16.1157611184724,                       !- August Surface Ground Temperature {C}
  16.2934789303462,                       !- September Surface Ground Temperature {C}
  14.5920754632847,                       !- October Surface Ground Temperature {C}
  11.374036348653,                        !- November Surface Ground Temperature {C}
  7.68182621661674;                       !- December Surface Ground Temperature {C}

OS:ThermalZone,
  {c57cfb62-efbb-4608-a395-9d11cc262e41}, !- Handle
  conditioned space,                      !- Name
  1,                                      !- Multiplier
  ,                                       !- Ceiling Height {m}
  346.03186535424,                        !- Volume {m3}
  ,                                       !- Floor Area {m2}
  ,                                       !- Zone Inside Convection Algorithm
  ,                                       !- Zone Outside Convection Algorithm
  ,                                       !- Zone Conditioning Equipment List Name
  {eac39c7d-c4ff-4ab9-865e-17f137ecfc4a}, !- Zone Air Inlet Port List
  {6f59c620-3b25-4133-84dc-ee646d670b26}, !- Zone Air Exhaust Port List
  {71b2ecc0-0430-4cb0-a74c-566377f4ddb0}, !- Zone Air Node Name
  {f21dd060-b099-40a7-b069-a7a22988ea63}, !- Zone Return Air Port List
  ,                                       !- Primary Daylighting Control Name
  ,                                       !- Fraction of Zone Controlled by Primary Daylighting Control
  ,                                       !- Secondary Daylighting Control Name
  ,                                       !- Fraction of Zone Controlled by Secondary Daylighting Control
  ,                                       !- Illuminance Map Name
  ,                                       !- Group Rendering Name
  {bb06b724-c7e9-4d3f-9c68-780d97ea30ab}, !- Thermostat Name
  No;                                     !- Use Ideal Air Loads

OS:Node,
  {1602f5e5-53a0-4f22-8aa6-e12ef4313738}, !- Handle
  Node 1,                                 !- Name
  {71b2ecc0-0430-4cb0-a74c-566377f4ddb0}, !- Inlet Port
  ;                                       !- Outlet Port

OS:Connection,
  {71b2ecc0-0430-4cb0-a74c-566377f4ddb0}, !- Handle
  {c57cfb62-efbb-4608-a395-9d11cc262e41}, !- Source Object
  11,                                     !- Outlet Port
  {1602f5e5-53a0-4f22-8aa6-e12ef4313738}, !- Target Object
  2;                                      !- Inlet Port

OS:PortList,
  {eac39c7d-c4ff-4ab9-865e-17f137ecfc4a}, !- Handle
  {c57cfb62-efbb-4608-a395-9d11cc262e41}, !- HVAC Component
  {65540315-33b5-46be-9a39-69f654adaee1}; !- Port 1

OS:PortList,
  {6f59c620-3b25-4133-84dc-ee646d670b26}, !- Handle
  {c57cfb62-efbb-4608-a395-9d11cc262e41}; !- HVAC Component

OS:PortList,
  {f21dd060-b099-40a7-b069-a7a22988ea63}, !- Handle
  {c57cfb62-efbb-4608-a395-9d11cc262e41}, !- HVAC Component
  {1741e0f9-eacd-4bbb-bd6f-ab4f84c135fd}; !- Port 1

OS:Sizing:Zone,
  {8feee42c-25e2-4cc4-99d8-78e9a6b08ee4}, !- Handle
  {c57cfb62-efbb-4608-a395-9d11cc262e41}, !- Zone or ZoneList Name
  SupplyAirTemperature,                   !- Zone Cooling Design Supply Air Temperature Input Method
  14,                                     !- Zone Cooling Design Supply Air Temperature {C}
  11.11,                                  !- Zone Cooling Design Supply Air Temperature Difference {deltaC}
  SupplyAirTemperature,                   !- Zone Heating Design Supply Air Temperature Input Method
  40,                                     !- Zone Heating Design Supply Air Temperature {C}
  11.11,                                  !- Zone Heating Design Supply Air Temperature Difference {deltaC}
  0.0085,                                 !- Zone Cooling Design Supply Air Humidity Ratio {kg-H2O/kg-air}
  0.008,                                  !- Zone Heating Design Supply Air Humidity Ratio {kg-H2O/kg-air}
  ,                                       !- Zone Heating Sizing Factor
  ,                                       !- Zone Cooling Sizing Factor
  DesignDay,                              !- Cooling Design Air Flow Method
  ,                                       !- Cooling Design Air Flow Rate {m3/s}
  ,                                       !- Cooling Minimum Air Flow per Zone Floor Area {m3/s-m2}
  ,                                       !- Cooling Minimum Air Flow {m3/s}
  ,                                       !- Cooling Minimum Air Flow Fraction
  DesignDay,                              !- Heating Design Air Flow Method
  ,                                       !- Heating Design Air Flow Rate {m3/s}
  ,                                       !- Heating Maximum Air Flow per Zone Floor Area {m3/s-m2}
  ,                                       !- Heating Maximum Air Flow {m3/s}
  ,                                       !- Heating Maximum Air Flow Fraction
  No,                                     !- Account for Dedicated Outdoor Air System
  NeutralSupplyAir,                       !- Dedicated Outdoor Air System Control Strategy
  autosize,                               !- Dedicated Outdoor Air Low Setpoint Temperature for Design {C}
  autosize,                               !- Dedicated Outdoor Air High Setpoint Temperature for Design {C}
  Sensible Load Only No Latent Load,      !- Zone Load Sizing Method
  HumidityRatioDifference,                !- Zone Latent Cooling Design Supply Air Humidity Ratio Input Method
  ,                                       !- Zone Dehumidification Design Supply Air Humidity Ratio {kgWater/kgDryAir}
  0.005,                                  !- Zone Cooling Design Supply Air Humidity Ratio Difference {kgWater/kgDryAir}
  HumidityRatioDifference,                !- Zone Latent Heating Design Supply Air Humidity Ratio Input Method
  ,                                       !- Zone Humidification Design Supply Air Humidity Ratio {kgWater/kgDryAir}
  0.005,                                  !- Zone Humidification Design Supply Air Humidity Ratio Difference {kgWater/kgDryAir}
  ,                                       !- Zone Humidistat Dehumidification Set Point Schedule Name
  ,                                       !- Zone Humidistat Humidification Set Point Schedule Name
  ,                                       !- Design Zone Air Distribution Effectiveness in Cooling Mode
  ,                                       !- Design Zone Air Distribution Effectiveness in Heating Mode
  ,                                       !- Design Zone Secondary Recirculation Fraction {dimensionless}
  ,                                       !- Design Minimum Zone Ventilation Efficiency {dimensionless}
  Coincident;                             !- Sizing Option

OS:ZoneHVAC:EquipmentList,
  {94db82c1-db01-483a-b7c4-ea37ac39f56e}, !- Handle
  Zone HVAC Equipment List 1,             !- Name
  {c57cfb62-efbb-4608-a395-9d11cc262e41}, !- Thermal Zone
  ,                                       !- Load Distribution Scheme
  {1b1d9f65-6dc4-4f11-8020-0b564c802357}, !- Zone Equipment 1
  1,                                      !- Zone Equipment Cooling Sequence 1
  1,                                      !- Zone Equipment Heating or No-Load Sequence 1
  {4c4b0d92-937f-49b8-9a19-9ab9132a5f24}, !- Zone Equipment Sequential Cooling Fraction Schedule Name 1
  {652f5632-d6a2-4fd7-a4ac-819a845846f8}; !- Zone Equipment Sequential Heating Fraction Schedule Name 1

OS:AdditionalProperties,
  {a2208ef8-36c7-4a10-a6ca-e50e030da9ac}, !- Handle
  {c57cfb62-efbb-4608-a395-9d11cc262e41}, !- Object Name
  ObjectType,                             !- Feature Name 1
  String,                                 !- Feature Data Type 1
  conditioned space;                      !- Feature Value 1

OS:Space,
  {a9415085-7fa6-4c8b-84a9-035780e01fb6}, !- Handle
  conditioned space 1,                    !- Name
  ,                                       !- Space Type Name
  ,                                       !- Default Construction Set Name
  ,                                       !- Default Schedule Set Name
  ,                                       !- Direction of Relative North {deg}
  ,                                       !- X Origin {m}
  ,                                       !- Y Origin {m}
  ,                                       !- Z Origin {m}
  ,                                       !- Building Story Name
  {c57cfb62-efbb-4608-a395-9d11cc262e41}, !- Thermal Zone Name
  ,                                       !- Part of Total Floor Area
  ,                                       !- Design Specification Outdoor Air Object Name
  ,                                       !- Building Unit Name
  346.03186535424;                        !- Volume {m3}

OS:Schedule:Ruleset,
  {c7ac5abc-231b-4396-b4c3-f3934319df8d}, !- Handle
  heating setpoint,                       !- Name
  {017b45a6-64b7-4504-b5dc-e10496e70b26}, !- Schedule Type Limits Name
  {e93f2cee-392a-45ac-8495-0a94fb6aa17d}; !- Default Day Schedule Name

OS:Schedule:Day,
  {e93f2cee-392a-45ac-8495-0a94fb6aa17d}, !- Handle
  heating setpoint default day,           !- Name
  {017b45a6-64b7-4504-b5dc-e10496e70b26}, !- Schedule Type Limits Name
  ,                                       !- Interpolate to Timestep
  24,                                     !- Hour 1
  0,                                      !- Minute 1
  0;                                      !- Value Until Time 1

OS:Schedule:Rule,
  {176dc80d-aef1-487c-91ba-33a88b85e340}, !- Handle
  heating setpoint allday rule,           !- Name
  {c7ac5abc-231b-4396-b4c3-f3934319df8d}, !- Schedule Ruleset Name
  0,                                      !- Rule Order
  {2b80b2f4-1a57-4d1f-aa08-d4096a4c67b0}, !- Day Schedule Name
  Yes,                                    !- Apply Sunday
  Yes,                                    !- Apply Monday
  Yes,                                    !- Apply Tuesday
  Yes,                                    !- Apply Wednesday
  Yes,                                    !- Apply Thursday
  Yes,                                    !- Apply Friday
  Yes,                                    !- Apply Saturday
  DateRange,                              !- Date Specification Type
  1,                                      !- Start Month
  1,                                      !- Start Day
  12,                                     !- End Month
  31;                                     !- End Day

OS:Schedule:Day,
  {2b80b2f4-1a57-4d1f-aa08-d4096a4c67b0}, !- Handle
  heating setpoint day,                   !- Name
  {017b45a6-64b7-4504-b5dc-e10496e70b26}, !- Schedule Type Limits Name
  ,                                       !- Interpolate to Timestep
  24,                                     !- Hour 1
  0,                                      !- Minute 1
  20;                                     !- Value Until Time 1

OS:Schedule:Ruleset,
  {9641b3d2-b4f6-4fef-9c31-0b89af0cf413}, !- Handle
  cooling setpoint,                       !- Name
  {017b45a6-64b7-4504-b5dc-e10496e70b26}, !- Schedule Type Limits Name
  {68e6fddd-9920-45b8-848e-d98c417e86df}; !- Default Day Schedule Name

OS:Schedule:Day,
  {68e6fddd-9920-45b8-848e-d98c417e86df}, !- Handle
  cooling setpoint default day,           !- Name
  {017b45a6-64b7-4504-b5dc-e10496e70b26}, !- Schedule Type Limits Name
  ,                                       !- Interpolate to Timestep
  24,                                     !- Hour 1
  0,                                      !- Minute 1
  0;                                      !- Value Until Time 1

OS:Schedule:Rule,
  {5ed91b52-ca36-418b-9071-ac18065dd325}, !- Handle
  cooling setpoint allday rule,           !- Name
  {9641b3d2-b4f6-4fef-9c31-0b89af0cf413}, !- Schedule Ruleset Name
  0,                                      !- Rule Order
  {6261c40d-f1f5-4dfc-ac3f-b7f246d5ad3a}, !- Day Schedule Name
  Yes,                                    !- Apply Sunday
  Yes,                                    !- Apply Monday
  Yes,                                    !- Apply Tuesday
  Yes,                                    !- Apply Wednesday
  Yes,                                    !- Apply Thursday
  Yes,                                    !- Apply Friday
  Yes,                                    !- Apply Saturday
  DateRange,                              !- Date Specification Type
  1,                                      !- Start Month
  1,                                      !- Start Day
  12,                                     !- End Month
  31;                                     !- End Day

OS:Schedule:Day,
  {6261c40d-f1f5-4dfc-ac3f-b7f246d5ad3a}, !- Handle
  cooling setpoint day,                   !- Name
  {017b45a6-64b7-4504-b5dc-e10496e70b26}, !- Schedule Type Limits Name
  ,                                       !- Interpolate to Timestep
  24,                                     !- Hour 1
  0,                                      !- Minute 1
  25.5555555555556;                       !- Value Until Time 1

OS:ThermostatSetpoint:DualSetpoint,
  {bb06b724-c7e9-4d3f-9c68-780d97ea30ab}, !- Handle
  conditioned space temperature setpoint, !- Name
  {c7ac5abc-231b-4396-b4c3-f3934319df8d}, !- Heating Setpoint Temperature Schedule Name
  {9641b3d2-b4f6-4fef-9c31-0b89af0cf413}, !- Cooling Setpoint Temperature Schedule Name
  0;                                      !- Temperature Difference Between Cutout And Setpoint {deltaC}

OS:ScheduleTypeLimits,
  {017b45a6-64b7-4504-b5dc-e10496e70b26}, !- Handle
  Temperature,                            !- Name
  ,                                       !- Lower Limit Value
  ,                                       !- Upper Limit Value
  Continuous,                             !- Numeric Type
  Temperature;                            !- Unit Type

OS:Surface,
  {8b1646e3-8d4e-43cb-bca7-66f3fde59e5b}, !- Handle
  Roof1,                                  !- Name
  RoofCeiling,                            !- Surface Type
  {a335afab-d59c-41e4-b9af-c863489280c9}, !- Construction Name
  {a9415085-7fa6-4c8b-84a9-035780e01fb6}, !- Space Name
  Outdoors,                               !- Outside Boundary Condition
  ,                                       !- Outside Boundary Condition Object
  SunExposed,                             !- Sun Exposure
  WindExposed,                            !- Wind Exposure
  ,                                       !- View Factor to Ground
  ,                                       !- Number of Vertices
  -27.1507941683368, 33.2208099683368, 2.4384, !- X,Y,Z Vertex 1 {m}
  -27.1507941683368, 25.2543851312596, 6.42161241853859, !- X,Y,Z Vertex 2 {m}
  -18.2440604316632, 25.2543851312596, 6.42161241853859, !- X,Y,Z Vertex 3 {m}
  -18.2440604316632, 33.2208099683368, 2.4384; !- X,Y,Z Vertex 4 {m}

OS:AdditionalProperties,
  {aed99928-c5ba-4149-8217-36baee358402}, !- Handle
  {8b1646e3-8d4e-43cb-bca7-66f3fde59e5b}, !- Object Name
  Length,                                 !- Feature Name 1
  Double,                                 !- Feature Data Type 1
  29.221567377538118,                     !- Feature Value 1
  Width,                                  !- Feature Name 2
  Double,                                 !- Feature Data Type 2
  29.221567377538118,                     !- Feature Value 2
  Azimuth,                                !- Feature Name 3
  Integer,                                !- Feature Data Type 3
  0,                                      !- Feature Value 3
  Tilt,                                   !- Feature Name 4
  Double,                                 !- Feature Data Type 4
  0.5,                                    !- Feature Value 4
  SurfaceType,                            !- Feature Name 5
  String,                                 !- Feature Data Type 5
  Roof;                                   !- Feature Value 5

OS:Material,
  {64e11998-dfd9-4122-ae9a-60cf9eca0c93}, !- Handle
  asphalt or fiberglass shingles,         !- Name
  Rough,                                  !- Roughness
  0.00635,                                !- Thickness {m}
  0.162714,                               !- Conductivity {W/m-K}
  1121.4,                                 !- Density {kg/m3}
  1465.45,                                !- Specific Heat {J/kg-K}
  0.9,                                    !- Thermal Absorptance
  0.85,                                   !- Solar Absorptance
  0.85;                                   !- Visible Absorptance

OS:Material,
  {4f387c47-477e-447f-a167-9ebc4510c1a1}, !- Handle
  roof stud and cavity,                   !- Name
  Rough,                                  !- Roughness
  0.0889,                                 !- Thickness {m}
  0.468249472857624,                      !- Conductivity {W/m-K}
  50.32683,                               !- Density {kg/m3}
  1063.80987585548,                       !- Specific Heat {J/kg-K}
  0.9,                                    !- Thermal Absorptance
  0.7,                                    !- Solar Absorptance
  0.7;                                    !- Visible Absorptance

OS:Material,
  {184c004c-d4a6-4504-81a4-17e39b4724d3}, !- Handle
  gypsum board,                           !- Name
  Rough,                                  !- Roughness
  0.00254,                                !- Thickness {m}
  0.1602906,                              !- Conductivity {W/m-K}
  801,                                    !- Density {kg/m3}
  837.4,                                  !- Specific Heat {J/kg-K}
  0.9,                                    !- Thermal Absorptance
  0.6,                                    !- Solar Absorptance
  0.6;                                    !- Visible Absorptance

OS:Construction,
  {a335afab-d59c-41e4-b9af-c863489280c9}, !- Handle
  Roof1 construction,                     !- Name
  ,                                       !- Surface Rendering Name
  {64e11998-dfd9-4122-ae9a-60cf9eca0c93}, !- Layer 1
  {4f387c47-477e-447f-a167-9ebc4510c1a1}, !- Layer 2
  {184c004c-d4a6-4504-81a4-17e39b4724d3}; !- Layer 3

OS:Surface,
  {6d9f176a-4b96-4c36-b9f7-e415e55cb3aa}, !- Handle
  Roof2,                                  !- Name
  RoofCeiling,                            !- Surface Type
  {136960df-62c0-48b7-93e0-cb3866b42da6}, !- Construction Name
  {a9415085-7fa6-4c8b-84a9-035780e01fb6}, !- Space Name
  Outdoors,                               !- Outside Boundary Condition
  ,                                       !- Outside Boundary Condition Object
  SunExposed,                             !- Sun Exposure
  WindExposed,                            !- Wind Exposure
  ,                                       !- View Factor to Ground
  ,                                       !- Number of Vertices
  -24.3140762316632, -33.2208099683368, 2.4384, !- X,Y,Z Vertex 1 {m}
  -24.3140762316632, -25.2543851312596, 6.42161241853859, !- X,Y,Z Vertex 2 {m}
  -33.2208099683368, -25.2543851312596, 6.42161241853859, !- X,Y,Z Vertex 3 {m}
  -33.2208099683368, -33.2208099683368, 2.4384; !- X,Y,Z Vertex 4 {m}

OS:AdditionalProperties,
  {4c0435a9-4a85-4ea9-84c0-e7637aa49038}, !- Handle
  {6d9f176a-4b96-4c36-b9f7-e415e55cb3aa}, !- Object Name
  Length,                                 !- Feature Name 1
  Double,                                 !- Feature Data Type 1
  29.221567377538118,                     !- Feature Value 1
  Width,                                  !- Feature Name 2
  Double,                                 !- Feature Data Type 2
  29.221567377538118,                     !- Feature Value 2
  Azimuth,                                !- Feature Name 3
  Integer,                                !- Feature Data Type 3
  180,                                    !- Feature Value 3
  Tilt,                                   !- Feature Name 4
  Double,                                 !- Feature Data Type 4
  0.5,                                    !- Feature Value 4
  SurfaceType,                            !- Feature Name 5
  String,                                 !- Feature Data Type 5
  Roof;                                   !- Feature Value 5

OS:Construction,
  {136960df-62c0-48b7-93e0-cb3866b42da6}, !- Handle
  Roof2 construction,                     !- Name
  ,                                       !- Surface Rendering Name
  {64e11998-dfd9-4122-ae9a-60cf9eca0c93}, !- Layer 1
  {4f387c47-477e-447f-a167-9ebc4510c1a1}, !- Layer 2
  {184c004c-d4a6-4504-81a4-17e39b4724d3}; !- Layer 3

OS:Surface,
  {15dc531e-6831-4910-ba69-7a4a350468eb}, !- Handle
  Wall1,                                  !- Name
  Wall,                                   !- Surface Type
  {61dc77c2-8802-4a59-96a1-a8deb4281779}, !- Construction Name
  {a9415085-7fa6-4c8b-84a9-035780e01fb6}, !- Space Name
  Outdoors,                               !- Outside Boundary Condition
  ,                                       !- Outside Boundary Condition Object
  SunExposed,                             !- Sun Exposure
  WindExposed,                            !- Wind Exposure
  ,                                       !- View Factor to Ground
  ,                                       !- Number of Vertices
  -32.2917795683368, 33.2208099683368, 0, !- X,Y,Z Vertex 1 {m}
  -32.2917795683368, 33.2208099683368, 4.8768, !- X,Y,Z Vertex 2 {m}
  -28.0798245683368, 33.2208099683368, 4.8768, !- X,Y,Z Vertex 3 {m}
  -28.0798245683368, 33.2208099683368, 0; !- X,Y,Z Vertex 4 {m}

OS:AdditionalProperties,
  {e311ec85-ebd7-44e8-b31c-6a8f76399be7}, !- Handle
  {15dc531e-6831-4910-ba69-7a4a350468eb}, !- Object Name
  Length,                                 !- Feature Name 1
  Double,                                 !- Feature Data Type 1
  13.81875,                               !- Feature Value 1
  Azimuth,                                !- Feature Name 2
  Integer,                                !- Feature Data Type 2
  0,                                      !- Feature Value 2
  Tilt,                                   !- Feature Name 3
  Double,                                 !- Feature Data Type 3
  90,                                     !- Feature Value 3
  SurfaceType,                            !- Feature Name 4
  String,                                 !- Feature Data Type 4
  Wall;                                   !- Feature Value 4

OS:Material,
  {7c2b77ce-3076-48bc-8ef5-c6da0a951aad}, !- Handle
  wood siding,                            !- Name
  Rough,                                  !- Roughness
  0.0254,                                 !- Thickness {m}
  0.1024175,                              !- Conductivity {W/m-K}
  544.68,                                 !- Density {kg/m3}
  1172.36,                                !- Specific Heat {J/kg-K}
  0.9,                                    !- Thermal Absorptance
  0.7,                                    !- Solar Absorptance
  0.7;                                    !- Visible Absorptance

OS:Material,
  {c6935c85-2cd3-4da2-b85a-2b1931b3ce9b}, !- Handle
  osb sheathing 0.5 in.,                  !- Name
  Rough,                                  !- Roughness
  0.0127,                                 !- Thickness {m}
  0.1154577,                              !- Conductivity {W/m-K}
  512.64,                                 !- Density {kg/m3}
  1214.23,                                !- Specific Heat {J/kg-K}
  0.9,                                    !- Thermal Absorptance
  0.7,                                    !- Solar Absorptance
  0.7;                                    !- Visible Absorptance

OS:Material,
  {3703e6e4-31f4-4135-921d-49ebb58c8be8}, !- Handle
  wall stud and cavity,                   !- Name
  Rough,                                  !- Roughness
  0.1397,                                 !- Thickness {m}
  0.0929021674204099,                     !- Conductivity {W/m-K}
  139.0536,                               !- Density {kg/m3}
  1170.23755760369,                       !- Specific Heat {J/kg-K}
  0.9,                                    !- Thermal Absorptance
  0.7,                                    !- Solar Absorptance