
OS:Version,
  {9000a619-7857-4bc3-a4d3-6deee1c8a7b6}, !- Handle
  3.10.0;                                 !- Version Identifier

OS:SimulationControl,
  {f377bf8f-8b7b-4d85-88fd-e065cef499dc}, !- Handle
  ,                                       !- Do Zone Sizing Calculation
  ,                                       !- Do System Sizing Calculation
  ,                                       !- Do Plant Sizing Calculation
  No;                                     !- Run Simulation for Sizing Periods

OS:Timestep,
  {1d26baa5-5c83-48da-afd3-62e1fdb5f28d}, !- Handle
  1;                                      !- Number of Timesteps per Hour

OS:ShadowCalculation,
  {48260a79-21da-4afc-a904-1494548b0c9a}, !- Handle
  PolygonClipping,                        !- Shading Calculation Method
  ,                                       !- Shading Calculation Update Frequency Method
  20,                                     !- Shading Calculation Update Frequency
  200,                                    !- Maximum Figures in Shadow Overlap Calculations
  ,                                       !- Polygon Clipping Algorithm
  512,                                    !- Pixel Counting Resolution
  ,                                       !- Sky Diffuse Modeling Algorithm
  No,                                     !- Output External Shading Calculation Results
  No,                                     !- Disable Self-Shading Within Shading Zone Groups
  No;                                     !- Disable Self-Shading From Shading Zone Groups to Other Zones

OS:SurfaceConvectionAlgorithm:Outside,
  {495c0350-1e86-40f3-a020-0e36e0c513d7}, !- Handle
  DOE-2;                                  !- Algorithm

OS:SurfaceConvectionAlgorithm:Inside,
  {d4adc06a-8d46-4fa3-8661-a09ecc5f112b}, !- Handle
  TARP;                                   !- Algorithm

OS:ZoneCapacitanceMultiplier:ResearchSpecial,
  {80431cb3-5041-4979-9658-0cc51070ae4e}, !- Handle
  7,                                      !- Temperature Capacity Multiplier
  15,                                     !- Humidity Capacity Multiplier
  ;                                       !- Carbon Dioxide Capacity Multiplier

OS:ConvergenceLimits,
  {b4fbae11-994f-47df-ade7-3c651ecbe533}, !- Handle
  0;                                      !- Minimum System Timestep {minutes}

OS:RunPeriod,
  {9a9733a1-5f03-4d98-bcfb-d33951dffcd8}, !- Handle
  Run Period 1,                           !- Name
  1,                                      !- Begin Month
  1,                                      !- Begin Day of Month
  12,                                     !- End Month
  31,                                     !- End Day of Month
  ,                                       !- Use Weather File Holidays and Special Days
  ,                                       !- Use Weather File Daylight Saving Period
  ,                                       !- Apply Weekend Holiday Rule
  ,                                       !- Use Weather File Rain Indicators
  ,                                       !- Use Weather File Snow Indicators
  ;                                       !- Number of Times Runperiod to be Repeated

OS:PerformancePrecisionTradeoffs,
  {d59b2e70-1a18-4cbc-ba24-90123645c8c3}, !- Handle
  ,                                       !- Use Coil Direct Solutions
  CarrollMRT;                             !- Zone Radiant Exchange Algorithm

OS:WeatherFile,
  {106a5e5e-36ec-4475-a848-24d388b636ad}, !- Handle
  Buffalo Niagara Intl Ap,                !- City
  NY,                                     !- State Province Region
  USA,                                    !- Country
  TMY3,                                   !- Data Source
  725280,                                 !- WMO Number
  42.93,                                  !- Latitude {deg}
  -78.73,                                 !- Longitude {deg}
  -5,                                     !- Time Zone {hr}
  215,                                    !- Elevation {m}
  /Users/nmoore/github/urbanopt-example-geojson-project/example_project/weather/USA_NY_Buffalo-Greater.Buffalo.Intl.AP.725280_TMY3.epw, !- Url
  6B50E0FF,                               !- Checksum
  ,                                       !- Start Date Actual Year
  Sunday;                                 !- Start Day of Week

OS:YearDescription,
  {5aeeafe8-f67b-4002-ab17-d63fab391822}, !- Handle
  2007,                                   !- Calendar Year
  ,                                       !- Day of Week for Start Day
  ;                                       !- Is Leap Year

OS:Site,
  {e2608a93-557f-46c1-94c4-35b814ff46a1}, !- Handle
  Buffalo Niagara Intl Ap_NY,             !- Name
  42.93,                                  !- Latitude {deg}
  -78.73,                                 !- Longitude {deg}
  -5,                                     !- Time Zone {hr}
  215,                                    !- Elevation {m}
  Suburbs,                                !- Terrain
  Yes;                                    !- Keep Site Location Information

OS:RunPeriodControl:DaylightSavingTime,
  {e531f0f8-d6b8-46e2-862d-29787311c74a}, !- Handle
  Mar 12,                                 !- Start Date
  Nov 5;                                  !- End Date

OS:Site:GroundTemperature:Shallow,
  {47a477b7-af0e-4c22-86a7-fe3f1ad4e915}, !- Handle
  4.30207395723828,                       !- January Surface Ground Temperature {C}
  2.29327249652502,                       !- February Surface Ground Temperature {C}
  2.13240047156047,                       !- March Surface Ground Temperature {C}
  3.08567940719286,                       !- April Surface Ground Temperature {C}
  6.91256312497526,                       !- May Surface Ground Temperature {C}
  10.7216195949507,                       !- June Surface Ground Temperature {C}
  14.0238679822574,                       !- July Surface Ground Temperature {C}
  16.1157611184724,                       !- August Surface Ground Temperature {C}
  16.2934789303462,                       !- September Surface Ground Temperature {C}
  14.5920754632847,                       !- October Surface Ground Temperature {C}
  11.374036348653,                        !- November Surface Ground Temperature {C}
  7.68182621661674;                       !- December Surface Ground Temperature {C}

OS:ThermalZone,
  {fb44c04e-83fe-4665-95cf-6586233bb2ed}, !- Handle
  conditioned space,                      !- Name
  1,                                      !- Multiplier
  ,                                       !- Ceiling Height {m}
  692.06373070848,                        !- Volume {m3}
  ,                                       !- Floor Area {m2}
  ,                                       !- Zone Inside Convection Algorithm
  ,                                       !- Zone Outside Convection Algorithm
  ,                                       !- Zone Conditioning Equipment List Name
  {0172f6e6-94e8-463e-944f-857f77367cf6}, !- Zone Air Inlet Port List
  {841ada90-81b7-4c45-b0e0-e19f936203a8}, !- Zone Air Exhaust Port List
  {77ed8275-b466-4304-a3b0-fd62de95542a}, !- Zone Air Node Name
  {72f493e2-ead3-46b5-8de9-11b6ee201f1f}, !- Zone Return Air Port List
  ,                                       !- Primary Daylighting Control Name
  ,                                       !- Fraction of Zone Controlled by Primary Daylighting Control
  ,                                       !- Secondary Daylighting Control Name
  ,                                       !- Fraction of Zone Controlled by Secondary Daylighting Control
  ,                                       !- Illuminance Map Name
  ,                                       !- Group Rendering Name
  {40658bed-7cda-4698-a11c-8eb81415c233}, !- Thermostat Name
  No;                                     !- Use Ideal Air Loads

OS:Node,
  {c39ab3c3-2f0b-45b7-9f77-e1addddb1e3c}, !- Handle
  Node 1,                                 !- Name
  {77ed8275-b466-4304-a3b0-fd62de95542a}, !- Inlet Port
  ;                                       !- Outlet Port

OS:Connection,
  {77ed8275-b466-4304-a3b0-fd62de95542a}, !- Handle
  {fb44c04e-83fe-4665-95cf-6586233bb2ed}, !- Source Object
  11,                                     !- Outlet Port
  {c39ab3c3-2f0b-45b7-9f77-e1addddb1e3c}, !- Target Object
  2;                                      !- Inlet Port

OS:PortList,
  {0172f6e6-94e8-463e-944f-857f77367cf6}, !- Handle
  {fb44c04e-83fe-4665-95cf-6586233bb2ed}, !- HVAC Component
  {618f7df5-63ef-459f-ac84-94f795cecd5f}; !- Port 1

OS:PortList,
  {841ada90-81b7-4c45-b0e0-e19f936203a8}, !- Handle
  {fb44c04e-83fe-4665-95cf-6586233bb2ed}; !- HVAC Component

OS:PortList,
  {72f493e2-ead3-46b5-8de9-11b6ee201f1f}, !- Handle
  {fb44c04e-83fe-4665-95cf-6586233bb2ed}, !- HVAC Component
  {8570d697-046b-43cb-bec1-d751dd1b350d}; !- Port 1

OS:Sizing:Zone,
  {ae6c20b6-83aa-4933-9827-3751b0712a9d}, !- Handle
  {fb44c04e-83fe-4665-95cf-6586233bb2ed}, !- Zone or ZoneList Name
  SupplyAirTemperature,                   !- Zone Cooling Design Supply Air Temperature Input Method
  14,                                     !- Zone Cooling Design Supply Air Temperature {C}
  11.11,                                  !- Zone Cooling Design Supply Air Temperature Difference {deltaC}
  SupplyAirTemperature,                   !- Zone Heating Design Supply Air Temperature Input Method
  40,                                     !- Zone Heating Design Supply Air Temperature {C}
  11.11,                                  !- Zone Heating Design Supply Air Temperature Difference {deltaC}
  0.0085,                                 !- Zone Cooling Design Supply Air Humidity Ratio {kg-H2O/kg-air}
  0.008,                                  !- Zone Heating Design Supply Air Humidity Ratio {kg-H2O/kg-air}
  ,                                       !- Zone Heating Sizing Factor
  ,                                       !- Zone Cooling Sizing Factor
  DesignDay,                              !- Cooling Design Air Flow Method
  ,                                       !- Cooling Design Air Flow Rate {m3/s}
  ,                                       !- Cooling Minimum Air Flow per Zone Floor Area {m3/s-m2}
  ,                                       !- Cooling Minimum Air Flow {m3/s}
  ,                                       !- Cooling Minimum Air Flow Fraction
  DesignDay,                              !- Heating Design Air Flow Method
  ,                                       !- Heating Design Air Flow Rate {m3/s}
  ,                                       !- Heating Maximum Air Flow per Zone Floor Area {m3/s-m2}
  ,                                       !- Heating Maximum Air Flow {m3/s}
  ,                                       !- Heating Maximum Air Flow Fraction
  No,                                     !- Account for Dedicated Outdoor Air System
  NeutralSupplyAir,                       !- Dedicated Outdoor Air System Control Strategy
  autosize,                               !- Dedicated Outdoor Air Low Setpoint Temperature for Design {C}
  autosize,                               !- Dedicated Outdoor Air High Setpoint Temperature for Design {C}
  Sensible Load Only No Latent Load,      !- Zone Load Sizing Method
  HumidityRatioDifference,                !- Zone Latent Cooling Design Supply Air Humidity Ratio Input Method
  ,                                       !- Zone Dehumidification Design Supply Air Humidity Ratio {kgWater/kgDryAir}
  0.005,                                  !- Zone Cooling Design Supply Air Humidity Ratio Difference {kgWater/kgDryAir}
  HumidityRatioDifference,                !- Zone Latent Heating Design Supply Air Humidity Ratio Input Method
  ,                                       !- Zone Humidification Design Supply Air Humidity Ratio {kgWater/kgDryAir}
  0.005,                                  !- Zone Humidification Design Supply Air Humidity Ratio Difference {kgWater/kgDryAir}
  ,                                       !- Zone Humidistat Dehumidification Set Point Schedule Name
  ,                                       !- Zone Humidistat Humidification Set Point Schedule Name
  ,                                       !- Design Zone Air Distribution Effectiveness in Cooling Mode
  ,                                       !- Design Zone Air Distribution Effectiveness in Heating Mode
  ,                                       !- Design Zone Secondary Recirculation Fraction {dimensionless}
  ,                                       !- Design Minimum Zone Ventilation Efficiency {dimensionless}
  Coincident;                             !- Sizing Option

OS:ZoneHVAC:EquipmentList,
  {b2e19e59-3cf1-4066-8b6f-fb9933988be1}, !- Handle
  Zone HVAC Equipment List 1,             !- Name
  {fb44c04e-83fe-4665-95cf-6586233bb2ed}, !- Thermal Zone
  ,                                       !- Load Distribution Scheme
  {cc52ea59-8636-4eb7-ab8d-1450bbab26e6}, !- Zone Equipment 1
  1,                                      !- Zone Equipment Cooling Sequence 1
  1,                                      !- Zone Equipment Heating or No-Load Sequence 1
  {1400f72e-705a-47c0-b311-668ea33a0e30}, !- Zone Equipment Sequential Cooling Fraction Schedule Name 1
  {ec3cf505-9cdb-473b-b75f-2818ad95d518}; !- Zone Equipment Sequential Heating Fraction Schedule Name 1

OS:AdditionalProperties,
  {010c96e9-8bd4-4abb-8230-ed01d41eeeef}, !- Handle
  {fb44c04e-83fe-4665-95cf-6586233bb2ed}, !- Object Name
  ObjectType,                             !- Feature Name 1
  String,                                 !- Feature Data Type 1
  conditioned space;                      !- Feature Value 1

OS:Space,
  {6918e0d6-5650-4c47-9c19-63fa62607d6b}, !- Handle
  conditioned space 1,                    !- Name
  ,                                       !- Space Type Name
  ,                                       !- Default Construction Set Name
  ,                                       !- Default Schedule Set Name
  ,                                       !- Direction of Relative North {deg}
  ,                                       !- X Origin {m}
  ,                                       !- Y Origin {m}
  ,                                       !- Z Origin {m}
  ,                                       !- Building Story Name
  {fb44c04e-83fe-4665-95cf-6586233bb2ed}, !- Thermal Zone Name
  ,                                       !- Part of Total Floor Area
  ,                                       !- Design Specification Outdoor Air Object Name
  ,                                       !- Building Unit Name
  692.06373070848;                        !- Volume {m3}

OS:Schedule:Ruleset,
  {6ca7c921-6213-4a9c-91f2-be255df1132e}, !- Handle
  heating setpoint,                       !- Name
  {35bc4989-23fb-4d7f-a682-6973cd3fe69a}, !- Schedule Type Limits Name
  {4c46cf16-ac07-4193-96f4-d36efdb8a6e9}; !- Default Day Schedule Name

OS:Schedule:Day,
  {4c46cf16-ac07-4193-96f4-d36efdb8a6e9}, !- Handle
  heating setpoint default day,           !- Name
  {35bc4989-23fb-4d7f-a682-6973cd3fe69a}, !- Schedule Type Limits Name
  ,                                       !- Interpolate to Timestep
  24,                                     !- Hour 1
  0,                                      !- Minute 1
  0;                                      !- Value Until Time 1

OS:Schedule:Rule,
  {842cd071-c304-4297-834f-576ebb673de7}, !- Handle
  heating setpoint allday rule,           !- Name
  {6ca7c921-6213-4a9c-91f2-be255df1132e}, !- Schedule Ruleset Name
  0,                                      !- Rule Order
  {3b117e08-c535-4a7d-be61-2c85529bd425}, !- Day Schedule Name
  Yes,                                    !- Apply Sunday
  Yes,                                    !- Apply Monday
  Yes,                                    !- Apply Tuesday
  Yes,                                    !- Apply Wednesday
  Yes,                                    !- Apply Thursday
  Yes,                                    !- Apply Friday
  Yes,                                    !- Apply Saturday
  DateRange,                              !- Date Specification Type
  1,                                      !- Start Month
  1,                                      !- Start Day
  12,                                     !- End Month
  31;                                     !- End Day

OS:Schedule:Day,
  {3b117e08-c535-4a7d-be61-2c85529bd425}, !- Handle
  heating setpoint day,                   !- Name
  {35bc4989-23fb-4d7f-a682-6973cd3fe69a}, !- Schedule Type Limits Name
  ,                                       !- Interpolate to Timestep
  24,                                     !- Hour 1
  0,                                      !- Minute 1
  20;                                     !- Value Until Time 1

OS:Schedule:Ruleset,
  {207782ec-921c-456d-9a70-4959c4650d13}, !- Handle
  cooling setpoint,                       !- Name
  {35bc4989-23fb-4d7f-a682-6973cd3fe69a}, !- Schedule Type Limits Name
  {18fc8ebc-606a-459a-80db-e4818063f5c3}; !- Default Day Schedule Name

OS:Schedule:Day,
  {18fc8ebc-606a-459a-80db-e4818063f5c3}, !- Handle
  cooling setpoint default day,           !- Name
  {35bc4989-23fb-4d7f-a682-6973cd3fe69a}, !- Schedule Type Limits Name
  ,                                       !- Interpolate to Timestep
  24,                                     !- Hour 1
  0,                                      !- Minute 1
  0;                                      !- Value Until Time 1

OS:Schedule:Rule,
  {6e40ec8a-2035-48dc-bdae-e3166586afb2}, !- Handle
  cooling setpoint allday rule,           !- Name
  {207782ec-921c-456d-9a70-4959c4650d13}, !- Schedule Ruleset Name
  0,                                      !- Rule Order
  {b7f5364a-8536-4245-8afd-cec3efed70d1}, !- Day Schedule Name
  Yes,                                    !- Apply Sunday
  Yes,                                    !- Apply Monday
  Yes,                                    !- Apply Tuesday
  Yes,                                    !- Apply Wednesday
  Yes,                                    !- Apply Thursday
  Yes,                                    !- Apply Friday
  Yes,                                    !- Apply Saturday
  DateRange,                              !- Date Specification Type
  1,                                      !- Start Month
  1,                                      !- Start Day
  12,                                     !- End Month
  31;                                     !- End Day

OS:Schedule:Day,
  {b7f5364a-8536-4245-8afd-cec3efed70d1}, !- Handle
  cooling setpoint day,                   !- Name
  {35bc4989-23fb-4d7f-a682-6973cd3fe69a}, !- Schedule Type Limits Name
  ,                                       !- Interpolate to Timestep
  24,                                     !- Hour 1
  0,                                      !- Minute 1
  25.5555555555556;                       !- Value Until Time 1

OS:ThermostatSetpoint:DualSetpoint,
  {40658bed-7cda-4698-a11c-8eb81415c233}, !- Handle
  conditioned space temperature setpoint, !- Name
  {6ca7c921-6213-4a9c-91f2-be255df1132e}, !- Heating Setpoint Temperature Schedule Name
  {207782ec-921c-456d-9a70-4959c4650d13}, !- Cooling Setpoint Temperature Schedule Name
  0;                                      !- Temperature Difference Between Cutout And Setpoint {deltaC}

OS:ScheduleTypeLimits,
  {35bc4989-23fb-4d7f-a682-6973cd3fe69a}, !- Handle
  Temperature,                            !- Name
  ,                                       !- Lower Limit Value
  ,                                       !- Upper Limit Value
  Continuous,                             !- Numeric Type
  Temperature;                            !- Unit Type

OS:Surface,
  {79076343-f43c-4476-81d9-ed7e45e772ae}, !- Handle
  Roof1,                                  !- Name
  RoofCeiling,                            !- Surface Type
  {bf3be83c-1b66-4f7c-b6e1-1b6949ad6f25}, !- Construction Name
  {4f31dca4-ff4c-4303-b558-ee005b27b84b}, !- Space Name
  Outdoors,                               !- Outside Boundary Condition
  ,                                       !- Outside Boundary Condition Object
  SunExposed,                             !- Sun Exposure
  WindExposed,                            !- Wind Exposure
  ,                                       !- View Factor to Ground
  ,                                       !- Number of Vertices
  -26.9347048849634, 58.0557891618865, 2.4384, !- X,Y,Z Vertex 1 {m}
  -26.9347048849634, 46.7895631136661, 8.0715130241102, !- X,Y,Z Vertex 2 {m}
  -14.3386812381136, 46.7895631136661, 8.0715130241102, !- X,Y,Z Vertex 3 {m}
  -14.3386812381136, 58.0557891618865, 2.4384; !- X,Y,Z Vertex 4 {m}

OS:AdditionalProperties,
  {c290e619-965c-4488-913b-061f831d2dc4}, !- Handle
  {79076343-f43c-4476-81d9-ed7e45e772ae}, !- Object Name
  Length,                                 !- Feature Name 1
  Double,                                 !- Feature Data Type 1
  41.325536899113608,                     !- Feature Value 1
  Width,                                  !- Feature Name 2
  Double,                                 !- Feature Data Type 2
  41.325536899113601,                     !- Feature Value 2
  Azimuth,                                !- Feature Name 3
  Integer,                                !- Feature Data Type 3
  0,                                      !- Feature Value 3
  Tilt,                                   !- Feature Name 4
  Double,                                 !- Feature Data Type 4
  0.5,                                    !- Feature Value 4
  SurfaceType,                            !- Feature Name 5
  String,                                 !- Feature Data Type 5
  Roof;                                   !- Feature Value 5

OS:ThermalZone,
  {ac8e3923-cde7-4d2a-85c3-82f92ca345e0}, !- Handle
  attic - vented,                         !- Name
  1,                                      !- Multiplier
  ,                                       !- Ceiling Height {m}
  356.390921899745,                       !- Volume {m3}
  ,                                       !- Floor Area {m2}
  ,                                       !- Zone Inside Convection Algorithm
  ,                                       !- Zone Outside Convection Algorithm
  ,                                       !- Zone Conditioning Equipment List Name
  {2f622ca2-5d8d-47c2-afd4-6b171a20911a}, !- Zone Air Inlet Port List
  {3e9b9ff3-6d33-41b4-8522-93160928faac}, !- Zone Air Exhaust Port List
  {de0d98a9-bf90-4b73-b8de-3a05162762fa}, !- Zone Air Node Name
  {09a32f34-340a-4540-aa9e-377ccab13ad3}, !- Zone Return Air Port List
  ,                                       !- Primary Daylighting Control Name
  ,                                       !- Fraction of Zone Controlled by Primary Daylighting Control
  ,                                       !- Secondary Daylighting Control Name
  ,                                       !- Fraction of Zone Controlled by Secondary Daylighting Control
  ,                                       !- Illuminance Map Name
  ,                                       !- Group Rendering Name
  ,                                       !- Thermostat Name
  No;                                     !- Use Ideal Air Loads

OS:Node,
  {3b16a391-8c1d-4e66-a315-4af75de53bd2}, !- Handle
  Node 2,                                 !- Name
  {de0d98a9-bf90-4b73-b8de-3a05162762fa}, !- Inlet Port
  ;                                       !- Outlet Port

OS:Connection,
  {de0d98a9-bf90-4b73-b8de-3a05162762fa}, !- Handle
  {ac8e3923-cde7-4d2a-85c3-82f92ca345e0}, !- Source Object
  11,                                     !- Outlet Port
  {3b16a391-8c1d-4e66-a315-4af75de53bd2}, !- Target Object
  2;                                      !- Inlet Port

OS:PortList,
  {2f622ca2-5d8d-47c2-afd4-6b171a20911a}, !- Handle
  {ac8e3923-cde7-4d2a-85c3-82f92ca345e0}; !- HVAC Component

OS:PortList,
  {3e9b9ff3-6d33-41b4-8522-93160928faac}, !- Handle
  {ac8e3923-cde7-4d2a-85c3-82f92ca345e0}; !- HVAC Component

OS:PortList,
  {09a32f34-340a-4540-aa9e-377ccab13ad3}, !- Handle
  {ac8e3923-cde7-4d2a-85c3-82f92ca345e0}; !- HVAC Component

OS:Sizing:Zone,
  {d6374982-5312-49e5-8d75-bb35bfd70a77}, !- Handle
  {ac8e3923-cde7-4d2a-85c3-82f92ca345e0}, !- Zone or ZoneList Name
  SupplyAirTemperature,                   !- Zone Cooling Design Supply Air Temperature Input Method
  14,                                     !- Zone Cooling Design Supply Air Temperature {C}
  11.11,                                  !- Zone Cooling Design Supply Air Temperature Difference {deltaC}
  SupplyAirTemperature,                   !- Zone Heating Design Supply Air Temperature Input Method
  40,                                     !- Zone Heating Design Supply Air Temperature {C}
  11.11,                                  !- Zone Heating Design Supply Air Temperature Difference {deltaC}
  0.0085,                                 !- Zone Cooling Design Supply Air Humidity Ratio {kg-H2O/kg-air}
  0.008,                                  !- Zone Heating Design Supply Air Humidity Ratio {kg-H2O/kg-air}
  ,                                       !- Zone Heating Sizing Factor
  ,                                       !- Zone Cooling Sizing Factor
  DesignDay,                              !- Cooling Design Air Flow Method
  ,                                       !- Cooling Design Air Flow Rate {m3/s}
  ,                                       !- Cooling Minimum Air Flow per Zone Floor Area {m3/s-m2}
  ,                                       !- Cooling Minimum Air Flow {m3/s}
  ,                                       !- Cooling Minimum Air Flow Fraction
  DesignDay,                              !- Heating Design Air Flow Method
  ,                                       !- Heating Design Air Flow Rate {m3/s}
  ,                                       !- Heating Maximum Air Flow per Zone Floor Area {m3/s-m2}
  ,                                       !- Heating Maximum Air Flow {m3/s}
  ,                                       !- Heating Maximum Air Flow Fraction
  No,                                     !- Account for Dedicated Outdoor Air System
  NeutralSupplyAir,                       !- Dedicated Outdoor Air System Control Strategy
  autosize,                               !- Dedicated Outdoor Air Low Setpoint Temperature for Design {C}
  autosize,                               !- Dedicated Outdoor Air High Setpoint Temperature for Design {C}
  Sensible Load Only No Latent Load,      !- Zone Load Sizing Method
  HumidityRatioDifference,                !- Zone Latent Cooling Design Supply Air Humidity Ratio Input Method
  ,                                       !- Zone Dehumidification Design Supply Air Humidity Ratio {kgWater/kgDryAir}
  0.005,                                  !- Zone Cooling Design Supply Air Humidity Ratio Difference {kgWater/kgDryAir}
  HumidityRatioDifference,                !- Zone Latent Heating Design Supply Air Humidity Ratio Input Method
  ,                                       !- Zone Humidification Design Supply Air Humidity Ratio {kgWater/kgDryAir}
  0.005,                                  !- Zone Humidification Design Supply Air Humidity Ratio Difference {kgWater/kgDryAir}
  ,                                       !- Zone Humidistat Dehumidification Set Point Schedule Name
  ,                                       !- Zone Humidistat Humidification Set Point Schedule Name
  ,                                       !- Design Zone Air Distribution Effectiveness in Cooling Mode
  ,                                       !- Design Zone Air Distribution Effectiveness in Heating Mode
  ,                                       !- Design Zone Secondary Recirculation Fraction {dimensionless}
  ,                                       !- Design Minimum Zone Ventilation Efficiency {dimensionless}
  Coincident;                             !- Sizing Option

OS:ZoneHVAC:EquipmentList,
  {48b64769-39fd-45d0-9957-4b46cd01a43b}, !- Handle
  Zone HVAC Equipment List 2,             !- Name
  {ac8e3923-cde7-4d2a-85c3-82f92ca345e0}; !- Thermal Zone

OS:AdditionalProperties,
  {d08ab456-4f59-4e1f-a8b2-c4a0826ad1f2}, !- Handle
  {ac8e3923-cde7-4d2a-85c3-82f92ca345e0}, !- Object Name
  ObjectType,                             !- Feature Name 1
  String,                                 !- Feature Data Type 1
  attic - vented;                         !- Feature Value 1

OS:Space,
  {4f31dca4-ff4c-4303-b558-ee005b27b84b}, !- Handle
  attic - vented 1,                       !- Name
  ,                                       !- Space Type Name
  ,                                       !- Default Construction Set Name
  ,                                       !- Default Schedule Set Name
  ,                                       !- Direction of Relative North {deg}
  ,                                       !- X Origin {m}
  ,                                       !- Y Origin {m}
  ,                                       !- Z Origin {m}
  ,                                       !- Building Story Name
  {ac8e3923-cde7-4d2a-85c3-82f92ca345e0}, !- Thermal Zone Name
  ,                                       !- Part of Total Floor Area
  ,                                       !- Design Specification Outdoor Air Object Name
  ,                                       !- Building Unit Name
  356.390921899745;                       !- Volume {m3}

OS:Material,
  {dca20497-19cf-4e92-9b56-19647dd26e3d}, !- Handle
  asphalt or fiberglass shingles,         !- Name
  Rough,                                  !- Roughness
  0.00635,                                !- Thickness {m}
  0.162714,                               !- Conductivity {W/m-K}
  1121.4,                                 !- Density {kg/m3}
  1465.45,                                !- Specific Heat {J/kg-K}
  0.9,                                    !- Thermal Absorptance
  0.85,                                   !- Solar Absorptance