
OS:Version,
  {87d74e8a-396f-41fc-8be4-1e9c0624d02e}, !- Handle
  3.9.0;                                  !- Version Identifier

OS:SimulationControl,
  {44c42fc9-4858-42e0-8838-b78ac0f47eac}, !- Handle
  ,                                       !- Do Zone Sizing Calculation
  ,                                       !- Do System Sizing Calculation
  ,                                       !- Do Plant Sizing Calculation
  No;                                     !- Run Simulation for Sizing Periods

OS:Timestep,
  {0c3dabc8-00eb-40ee-8abc-091e070edffc}, !- Handle
  1;                                      !- Number of Timesteps per Hour

OS:ShadowCalculation,
  {3b541cad-2601-4c72-8bcf-c5c1b49bc33e}, !- Handle
  PolygonClipping,                        !- Shading Calculation Method
  ,                                       !- Shading Calculation Update Frequency Method
  20,                                     !- Shading Calculation Update Frequency
  200,                                    !- Maximum Figures in Shadow Overlap Calculations
  ,                                       !- Polygon Clipping Algorithm
  512,                                    !- Pixel Counting Resolution
  ,                                       !- Sky Diffuse Modeling Algorithm
  No,                                     !- Output External Shading Calculation Results
  No,                                     !- Disable Self-Shading Within Shading Zone Groups
  No;                                     !- Disable Self-Shading From Shading Zone Groups to Other Zones

OS:SurfaceConvectionAlgorithm:Outside,
  {6f9c6d40-8d16-4c4d-a357-911d09d7442b}, !- Handle
  DOE-2;                                  !- Algorithm

OS:SurfaceConvectionAlgorithm:Inside,
  {d74b6fcc-314c-478f-8ad3-59c100860c87}, !- Handle
  TARP;                                   !- Algorithm

OS:ZoneCapacitanceMultiplier:ResearchSpecial,
  {39123ba1-fcbd-4a9a-9a12-3a31cb3d4909}, !- Handle
  7,                                      !- Temperature Capacity Multiplier
  15,                                     !- Humidity Capacity Multiplier
  ;                                       !- Carbon Dioxide Capacity Multiplier

OS:ConvergenceLimits,
  {5cc93fa2-4b38-456c-aa65-96ef664eb250}, !- Handle
  0;                                      !- Minimum System Timestep {minutes}

OS:RunPeriod,
  {6fb97d0b-f76c-4c58-b6f7-e26a6cab2e48}, !- Handle
  Run Period 1,                           !- Name
  1,                                      !- Begin Month
  1,                                      !- Begin Day of Month
  12,                                     !- End Month
  31,                                     !- End Day of Month
  ,                                       !- Use Weather File Holidays and Special Days
  ,                                       !- Use Weather File Daylight Saving Period
  ,                                       !- Apply Weekend Holiday Rule
  ,                                       !- Use Weather File Rain Indicators
  ,                                       !- Use Weather File Snow Indicators
  ;                                       !- Number of Times Runperiod to be Repeated

OS:PerformancePrecisionTradeoffs,
  {648b8964-cb37-4403-921c-aa87cf004e40}, !- Handle
  ,                                       !- Use Coil Direct Solutions
  CarrollMRT;                             !- Zone Radiant Exchange Algorithm

OS:WeatherFile,
  {123b534b-79f8-41cd-ba50-c816fac88b34}, !- Handle
  Buffalo Niagara Intl Ap,                !- City
  NY,                                     !- State Province Region
  USA,                                    !- Country
  TMY3,                                   !- Data Source
  725280,                                 !- WMO Number
  42.93,                                  !- Latitude {deg}
  -78.73,                                 !- Longitude {deg}
  -5,                                     !- Time Zone {hr}
  215,                                    !- Elevation {m}
  /Users/nmoore/github/urbanopt-example-geojson-project/example_project/weather/USA_NY_Buffalo-Greater.Buffalo.Intl.AP.725280_TMY3.epw, !- Url
  6B50E0FF,                               !- Checksum
  ,                                       !- Start Date Actual Year
  Sunday;                                 !- Start Day of Week

OS:YearDescription,
  {af2f81e7-f5a5-45cd-9be3-6578ad646a84}, !- Handle
  2007,                                   !- Calendar Year
  ,                                       !- Day of Week for Start Day
  ;                                       !- Is Leap Year

OS:Site,
  {d8d1742f-e52e-436c-9482-44c2fe50fac4}, !- Handle
  Buffalo Niagara Intl Ap_NY,             !- Name
  42.93,                                  !- Latitude {deg}
  -78.73,                                 !- Longitude {deg}
  -5,                                     !- Time Zone {hr}
  215,                                    !- Elevation {m}
  Suburbs,                                !- Terrain
  Yes;                                    !- Keep Site Location Information

OS:RunPeriodControl:DaylightSavingTime,
  {490d078a-474e-4c3a-8643-e2b45bdf00ad}, !- Handle
  Mar 12,                                 !- Start Date
  Nov 5;                                  !- End Date

OS:Site:GroundTemperature:Shallow,
  {7c8bbd72-2b7e-406a-80ab-1713effb8842}, !- Handle
  4.30207395723828,                       !- January Surface Ground Temperature {C}
  2.29327249652502,                       !- February Surface Ground Temperature {C}
  2.13240047156047,                       !- March Surface Ground Temperature {C}
  3.08567940719286,                       !- April Surface Ground Temperature {C}
  6.91256312497526,                       !- May Surface Ground Temperature {C}
  10.7216195949507,                       !- June Surface Ground Temperature {C}
  14.0238679822574,                       !- July Surface Ground Temperature {C}
  16.1157611184724,                       !- August Surface Ground Temperature {C}
  16.2934789303462,                       !- September Surface Ground Temperature {C}
  14.5920754632847,                       !- October Surface Ground Temperature {C}
  11.374036348653,                        !- November Surface Ground Temperature {C}
  7.68182621661674;                       !- December Surface Ground Temperature {C}

OS:ThermalZone,
  {3a401cce-fe65-485c-b47c-c17663e1ac38}, !- Handle
  conditioned space,                      !- Name
  1,                                      !- Multiplier
  ,                                       !- Ceiling Height {m}
  692.06373070848,                        !- Volume {m3}
  ,                                       !- Floor Area {m2}
  ,                                       !- Zone Inside Convection Algorithm
  ,                                       !- Zone Outside Convection Algorithm
  ,                                       !- Zone Conditioning Equipment List Name
  {76eee677-9d0d-4dc6-8e61-3a2c7508548c}, !- Zone Air Inlet Port List
  {4c1cfbf4-3e08-4c57-8e49-782ae43a9b83}, !- Zone Air Exhaust Port List
  {1be2b46b-4bd4-4e0d-9db3-d28373b55477}, !- Zone Air Node Name
  {19000938-d0ab-4edf-a457-5fd7e98b60f1}, !- Zone Return Air Port List
  ,                                       !- Primary Daylighting Control Name
  ,                                       !- Fraction of Zone Controlled by Primary Daylighting Control
  ,                                       !- Secondary Daylighting Control Name
  ,                                       !- Fraction of Zone Controlled by Secondary Daylighting Control
  ,                                       !- Illuminance Map Name
  ,                                       !- Group Rendering Name
  {3aad615e-2659-4d5f-ac2b-d157eae9d892}, !- Thermostat Name
  No;                                     !- Use Ideal Air Loads

OS:Node,
  {bc1bc9e8-6afc-4098-8600-06f43409e8f8}, !- Handle
  Node 1,                                 !- Name
  {1be2b46b-4bd4-4e0d-9db3-d28373b55477}, !- Inlet Port
  ;                                       !- Outlet Port

OS:Connection,
  {1be2b46b-4bd4-4e0d-9db3-d28373b55477}, !- Handle
  {3a401cce-fe65-485c-b47c-c17663e1ac38}, !- Source Object
  11,                                     !- Outlet Port
  {bc1bc9e8-6afc-4098-8600-06f43409e8f8}, !- Target Object
  2;                                      !- Inlet Port

OS:PortList,
  {76eee677-9d0d-4dc6-8e61-3a2c7508548c}, !- Handle
  {3a401cce-fe65-485c-b47c-c17663e1ac38}, !- HVAC Component
  {f7cb8630-eb77-4f49-a404-8b935ef3a5f5}; !- Port 1

OS:PortList,
  {4c1cfbf4-3e08-4c57-8e49-782ae43a9b83}, !- Handle
  {3a401cce-fe65-485c-b47c-c17663e1ac38}; !- HVAC Component

OS:PortList,
  {19000938-d0ab-4edf-a457-5fd7e98b60f1}, !- Handle
  {3a401cce-fe65-485c-b47c-c17663e1ac38}, !- HVAC Component
  {cdcb2497-1f21-445a-b1f5-1bd51740d1db}; !- Port 1

OS:Sizing:Zone,
  {03f4d70b-d795-4ef4-a3bb-c3b14cfc5c2b}, !- Handle
  {3a401cce-fe65-485c-b47c-c17663e1ac38}, !- Zone or ZoneList Name
  SupplyAirTemperature,                   !- Zone Cooling Design Supply Air Temperature Input Method
  14,                                     !- Zone Cooling Design Supply Air Temperature {C}
  11.11,                                  !- Zone Cooling Design Supply Air Temperature Difference {deltaC}
  SupplyAirTemperature,                   !- Zone Heating Design Supply Air Temperature Input Method
  40,                                     !- Zone Heating Design Supply Air Temperature {C}
  11.11,                                  !- Zone Heating Design Supply Air Temperature Difference {deltaC}
  0.0085,                                 !- Zone Cooling Design Supply Air Humidity Ratio {kg-H2O/kg-air}
  0.008,                                  !- Zone Heating Design Supply Air Humidity Ratio {kg-H2O/kg-air}
  ,                                       !- Zone Heating Sizing Factor
  ,                                       !- Zone Cooling Sizing Factor
  DesignDay,                              !- Cooling Design Air Flow Method
  ,                                       !- Cooling Design Air Flow Rate {m3/s}
  ,                                       !- Cooling Minimum Air Flow per Zone Floor Area {m3/s-m2}
  ,                                       !- Cooling Minimum Air Flow {m3/s}
  ,                                       !- Cooling Minimum Air Flow Fraction
  DesignDay,                              !- Heating Design Air Flow Method
  ,                                       !- Heating Design Air Flow Rate {m3/s}
  ,                                       !- Heating Maximum Air Flow per Zone Floor Area {m3/s-m2}
  ,                                       !- Heating Maximum Air Flow {m3/s}
  ,                                       !- Heating Maximum Air Flow Fraction
  No,                                     !- Account for Dedicated Outdoor Air System
  NeutralSupplyAir,                       !- Dedicated Outdoor Air System Control Strategy
  autosize,                               !- Dedicated Outdoor Air Low Setpoint Temperature for Design {C}
  autosize,                               !- Dedicated Outdoor Air High Setpoint Temperature for Design {C}
  Sensible Load Only No Latent Load,      !- Zone Load Sizing Method
  HumidityRatioDifference,                !- Zone Latent Cooling Design Supply Air Humidity Ratio Input Method
  ,                                       !- Zone Dehumidification Design Supply Air Humidity Ratio {kgWater/kgDryAir}
  0.005,                                  !- Zone Cooling Design Supply Air Humidity Ratio Difference {kgWater/kgDryAir}
  HumidityRatioDifference,                !- Zone Latent Heating Design Supply Air Humidity Ratio Input Method
  ,                                       !- Zone Humidification Design Supply Air Humidity Ratio {kgWater/kgDryAir}
  0.005,                                  !- Zone Humidification Design Supply Air Humidity Ratio Difference {kgWater/kgDryAir}
  ,                                       !- Zone Humidistat Dehumidification Set Point Schedule Name
  ,                                       !- Zone Humidistat Humidification Set Point Schedule Name
  ,                                       !- Design Zone Air Distribution Effectiveness in Cooling Mode
  ,                                       !- Design Zone Air Distribution Effectiveness in Heating Mode
  ,                                       !- Design Zone Secondary Recirculation Fraction {dimensionless}
  ,                                       !- Design Minimum Zone Ventilation Efficiency {dimensionless}
  Coincident;                             !- Sizing Option

OS:ZoneHVAC:EquipmentList,
  {9275f827-4e58-45aa-8d3e-6bd2dd29bf54}, !- Handle
  Zone HVAC Equipment List 1,             !- Name
  {3a401cce-fe65-485c-b47c-c17663e1ac38}, !- Thermal Zone
  ,                                       !- Load Distribution Scheme
  {ebf78318-39ee-41d7-9052-47dc72e61dc0}, !- Zone Equipment 1
  1,                                      !- Zone Equipment Cooling Sequence 1
  1,                                      !- Zone Equipment Heating or No-Load Sequence 1
  {c987b9e9-6ffe-432c-a910-92619f8f52b5}, !- Zone Equipment Sequential Cooling Fraction Schedule Name 1
  {476da1c3-9cd1-431c-bcd2-a8c0bf996405}; !- Zone Equipment Sequential Heating Fraction Schedule Name 1

OS:AdditionalProperties,
  {4e936499-593b-4441-b780-5010157e3754}, !- Handle
  {3a401cce-fe65-485c-b47c-c17663e1ac38}, !- Object Name
  ObjectType,                             !- Feature Name 1
  String,                                 !- Feature Data Type 1
  conditioned space;                      !- Feature Value 1

OS:Space,
  {8ad5321a-5040-484d-a7a7-022d0bebe6ab}, !- Handle
  conditioned space 1,                    !- Name
  ,                                       !- Space Type Name
  ,                                       !- Default Construction Set Name
  ,                                       !- Default Schedule Set Name
  ,                                       !- Direction of Relative North {deg}
  ,                                       !- X Origin {m}
  ,                                       !- Y Origin {m}
  ,                                       !- Z Origin {m}
  ,                                       !- Building Story Name
  {3a401cce-fe65-485c-b47c-c17663e1ac38}, !- Thermal Zone Name
  ,                                       !- Part of Total Floor Area
  ,                                       !- Design Specification Outdoor Air Object Name
  ,                                       !- Building Unit Name
  692.06373070848;                        !- Volume {m3}

OS:Schedule:Ruleset,
  {5cd02c62-5815-4148-8c3c-8b2d895bb73f}, !- Handle
  heating setpoint,                       !- Name
  {03bc9988-13d9-46fa-8d17-6510b1d3f6b0}, !- Schedule Type Limits Name
  {302b63e2-0594-4998-8759-ebe9563bc41f}; !- Default Day Schedule Name

OS:Schedule:Day,
  {302b63e2-0594-4998-8759-ebe9563bc41f}, !- Handle
  heating setpoint default day,           !- Name
  {03bc9988-13d9-46fa-8d17-6510b1d3f6b0}, !- Schedule Type Limits Name
  ,                                       !- Interpolate to Timestep
  24,                                     !- Hour 1
  0,                                      !- Minute 1
  0;                                      !- Value Until Time 1

OS:Schedule:Rule,
  {140c930d-30ac-4086-87ad-ba4a0bfd4f4e}, !- Handle
  heating setpoint allday rule,           !- Name
  {5cd02c62-5815-4148-8c3c-8b2d895bb73f}, !- Schedule Ruleset Name
  0,                                      !- Rule Order
  {e348bf2d-8dcf-4e01-964f-87b4ae771aa9}, !- Day Schedule Name
  Yes,                                    !- Apply Sunday
  Yes,                                    !- Apply Monday
  Yes,                                    !- Apply Tuesday
  Yes,                                    !- Apply Wednesday
  Yes,                                    !- Apply Thursday
  Yes,                                    !- Apply Friday
  Yes,                                    !- Apply Saturday
  DateRange,                              !- Date Specification Type
  1,                                      !- Start Month
  1,                                      !- Start Day
  12,                                     !- End Month
  31;                                     !- End Day

OS:Schedule:Day,
  {e348bf2d-8dcf-4e01-964f-87b4ae771aa9}, !- Handle
  heating setpoint day,                   !- Name
  {03bc9988-13d9-46fa-8d17-6510b1d3f6b0}, !- Schedule Type Limits Name
  ,                                       !- Interpolate to Timestep
  24,                                     !- Hour 1
  0,                                      !- Minute 1
  20;                                     !- Value Until Time 1

OS:Schedule:Ruleset,
  {773bfa66-ed4c-48ca-bee3-758f8b55b4b6}, !- Handle
  cooling setpoint,                       !- Name
  {03bc9988-13d9-46fa-8d17-6510b1d3f6b0}, !- Schedule Type Limits Name
  {994b05c7-f191-434f-bcf8-adfac3e4872b}; !- Default Day Schedule Name

OS:Schedule:Day,
  {994b05c7-f191-434f-bcf8-adfac3e4872b}, !- Handle
  cooling setpoint default day,           !- Name
  {03bc9988-13d9-46fa-8d17-6510b1d3f6b0}, !- Schedule Type Limits Name
  ,                                       !- Interpolate to Timestep
  24,                                     !- Hour 1
  0,                                      !- Minute 1
  0;                                      !- Value Until Time 1

OS:Schedule:Rule,
  {db16276d-fb42-480b-a63d-2f47d9b42f1c}, !- Handle
  cooling setpoint allday rule,           !- Name
  {773bfa66-ed4c-48ca-bee3-758f8b55b4b6}, !- Schedule Ruleset Name
  0,                                      !- Rule Order
  {5cc44e4d-dd85-4e9e-a916-2aa127fb1a90}, !- Day Schedule Name
  Yes,                                    !- Apply Sunday
  Yes,                                    !- Apply Monday
  Yes,                                    !- Apply Tuesday
  Yes,                                    !- Apply Wednesday
  Yes,                                    !- Apply Thursday
  Yes,                                    !- Apply Friday
  Yes,                                    !- Apply Saturday
  DateRange,                              !- Date Specification Type
  1,                                      !- Start Month
  1,                                      !- Start Day
  12,                                     !- End Month
  31;                                     !- End Day

OS:Schedule:Day,
  {5cc44e4d-dd85-4e9e-a916-2aa127fb1a90}, !- Handle
  cooling setpoint day,                   !- Name
  {03bc9988-13d9-46fa-8d17-6510b1d3f6b0}, !- Schedule Type Limits Name
  ,                                       !- Interpolate to Timestep
  24,                                     !- Hour 1
  0,                                      !- Minute 1
  25.5555555555556;                       !- Value Until Time 1

OS:ThermostatSetpoint:DualSetpoint,
  {3aad615e-2659-4d5f-ac2b-d157eae9d892}, !- Handle
  conditioned space temperature setpoint, !- Name
  {5cd02c62-5815-4148-8c3c-8b2d895bb73f}, !- Heating Setpoint Temperature Schedule Name
  {773bfa66-ed4c-48ca-bee3-758f8b55b4b6}, !- Cooling Setpoint Temperature Schedule Name
  0;                                      !- Temperature Difference Between Cutout And Setpoint {deltaC}

OS:ScheduleTypeLimits,
  {03bc9988-13d9-46fa-8d17-6510b1d3f6b0}, !- Handle
  Temperature,                            !- Name
  ,                                       !- Lower Limit Value
  ,                                       !- Upper Limit Value
  Continuous,                             !- Numeric Type
  Temperature;                            !- Unit Type

OS:Surface,
  {d3dd258b-7e25-457c-9eaf-19b21cf094dc}, !- Handle
  Roof1,                                  !- Name
  RoofCeiling,                            !- Surface Type
  {1b1afd50-031f-4c19-8dcf-3a147c105ac4}, !- Construction Name
  {50cb3498-148d-4eea-adef-2b39fa707161}, !- Space Name
  Outdoors,                               !- Outside Boundary Condition
  ,                                       !- Outside Boundary Condition Object
  SunExposed,                             !- Sun Exposure
  WindExposed,                            !- Wind Exposure
  ,                                       !- View Factor to Ground
  ,                                       !- Number of Vertices
  -26.9347048849634, 58.0557891618865, 2.4384, !- X,Y,Z Vertex 1 {m}
  -26.9347048849634, 46.7895631136661, 8.0715130241102, !- X,Y,Z Vertex 2 {m}
  -14.3386812381136, 46.7895631136661, 8.0715130241102, !- X,Y,Z Vertex 3 {m}
  -14.3386812381136, 58.0557891618865, 2.4384; !- X,Y,Z Vertex 4 {m}

OS:AdditionalProperties,
  {be6d52db-a7c6-4701-8489-58154d4b2fdc}, !- Handle
  {d3dd258b-7e25-457c-9eaf-19b21cf094dc}, !- Object Name
  Length,                                 !- Feature Name 1
  Double,                                 !- Feature Data Type 1
  41.325536899113608,                     !- Feature Value 1
  Width,                                  !- Feature Name 2
  Double,                                 !- Feature Data Type 2
  41.325536899113601,                     !- Feature Value 2
  Azimuth,                                !- Feature Name 3
  Integer,                                !- Feature Data Type 3
  0,                                      !- Feature Value 3
  Tilt,                                   !- Feature Name 4
  Double,                                 !- Feature Data Type 4
  0.5,                                    !- Feature Value 4
  SurfaceType,                            !- Feature Name 5
  String,                                 !- Feature Data Type 5
  Roof;                                   !- Feature Value 5

OS:ThermalZone,
  {04c6fa96-f833-4c78-be24-4b7fe4082fc3}, !- Handle
  attic - vented,                         !- Name
  1,                                      !- Multiplier
  ,                                       !- Ceiling Height {m}
  356.389957095237,                       !- Volume {m3}
  ,                                       !- Floor Area {m2}
  ,                                       !- Zone Inside Convection Algorithm
  ,                                       !- Zone Outside Convection Algorithm
  ,                                       !- Zone Conditioning Equipment List Name
  {0219e59e-eebe-4e3f-86b2-bc270256465c}, !- Zone Air Inlet Port List
  {0ee97cba-d5d0-4ec8-9152-62cf4f613e6f}, !- Zone Air Exhaust Port List
  {dfe1d2bb-bec9-4d43-9d1b-ec90dd265058}, !- Zone Air Node Name
  {2da13e1d-50ea-4698-974c-504c7f25728e}, !- Zone Return Air Port List
  ,                                       !- Primary Daylighting Control Name
  ,                                       !- Fraction of Zone Controlled by Primary Daylighting Control
  ,                                       !- Secondary Daylighting Control Name
  ,                                       !- Fraction of Zone Controlled by Secondary Daylighting Control
  ,                                       !- Illuminance Map Name
  ,                                       !- Group Rendering Name
  ,                                       !- Thermostat Name
  No;                                     !- Use Ideal Air Loads

OS:Node,
  {88873ebf-f537-49da-b6db-f8431ad6f0bd}, !- Handle
  Node 2,                                 !- Name
  {dfe1d2bb-bec9-4d43-9d1b-ec90dd265058}, !- Inlet Port
  ;                                       !- Outlet Port

OS:Connection,
  {dfe1d2bb-bec9-4d43-9d1b-ec90dd265058}, !- Handle
  {04c6fa96-f833-4c78-be24-4b7fe4082fc3}, !- Source Object
  11,                                     !- Outlet Port
  {88873ebf-f537-49da-b6db-f8431ad6f0bd}, !- Target Object
  2;                                      !- Inlet Port

OS:PortList,
  {0219e59e-eebe-4e3f-86b2-bc270256465c}, !- Handle
  {04c6fa96-f833-4c78-be24-4b7fe4082fc3}; !- HVAC Component

OS:PortList,
  {0ee97cba-d5d0-4ec8-9152-62cf4f613e6f}, !- Handle
  {04c6fa96-f833-4c78-be24-4b7fe4082fc3}; !- HVAC Component

OS:PortList,
  {2da13e1d-50ea-4698-974c-504c7f25728e}, !- Handle
  {04c6fa96-f833-4c78-be24-4b7fe4082fc3}; !- HVAC Component

OS:Sizing:Zone,
  {58082f62-7595-406e-bc69-c24a7221925b}, !- Handle
  {04c6fa96-f833-4c78-be24-4b7fe4082fc3}, !- Zone or ZoneList Name
  SupplyAirTemperature,                   !- Zone Cooling Design Supply Air Temperature Input Method
  14,                                     !- Zone Cooling Design Supply Air Temperature {C}
  11.11,                                  !- Zone Cooling Design Supply Air Temperature Difference {deltaC}
  SupplyAirTemperature,                   !- Zone Heating Design Supply Air Temperature Input Method
  40,                                     !- Zone Heating Design Supply Air Temperature {C}
  11.11,                                  !- Zone Heating Design Supply Air Temperature Difference {deltaC}
  0.0085,                                 !- Zone Cooling Design Supply Air Humidity Ratio {kg-H2O/kg-air}
  0.008,                                  !- Zone Heating Design Supply Air Humidity Ratio {kg-H2O/kg-air}
  ,                                       !- Zone Heating Sizing Factor
  ,                                       !- Zone Cooling Sizing Factor
  DesignDay,                              !- Cooling Design Air Flow Method
  ,                                       !- Cooling Design Air Flow Rate {m3/s}
  ,                                       !- Cooling Minimum Air Flow per Zone Floor Area {m3/s-m2}
  ,                                       !- Cooling Minimum Air Flow {m3/s}
  ,                                       !- Cooling Minimum Air Flow Fraction
  DesignDay,                              !- Heating Design Air Flow Method
  ,                                       !- Heating Design Air Flow Rate {m3/s}
  ,                                       !- Heating Maximum Air Flow per Zone Floor Area {m3/s-m2}
  ,                                       !- Heating Maximum Air Flow {m3/s}
  ,                                       !- Heating Maximum Air Flow Fraction
  No,                                     !- Account for Dedicated Outdoor Air System
  NeutralSupplyAir,                       !- Dedicated Outdoor Air System Control Strategy
  autosize,                               !- Dedicated Outdoor Air Low Setpoint Temperature for Design {C}
  autosize,                               !- Dedicated Outdoor Air High Setpoint Temperature for Design {C}
  Sensible Load Only No Latent Load,      !- Zone Load Sizing Method
  HumidityRatioDifference,                !- Zone Latent Cooling Design Supply Air Humidity Ratio Input Method
  ,                                       !- Zone Dehumidification Design Supply Air Humidity Ratio {kgWater/kgDryAir}
  0.005,                                  !- Zone Cooling Design Supply Air Humidity Ratio Difference {kgWater/kgDryAir}
  HumidityRatioDifference,                !- Zone Latent Heating Design Supply Air Humidity Ratio Input Method
  ,                                       !- Zone Humidification Design Supply Air Humidity Ratio {kgWater/kgDryAir}
  0.005,                                  !- Zone Humidification Design Supply Air Humidity Ratio Difference {kgWater/kgDryAir}
  ,                                       !- Zone Humidistat Dehumidification Set Point Schedule Name
  ,                                       !- Zone Humidistat Humidification Set Point Schedule Name
  ,                                       !- Design Zone Air Distribution Effectiveness in Cooling Mode
  ,                                       !- Design Zone Air Distribution Effectiveness in Heating Mode
  ,                                       !- Design Zone Secondary Recirculation Fraction {dimensionless}
  ,                                       !- Design Minimum Zone Ventilation Efficiency {dimensionless}
  Coincident;                             !- Sizing Option

OS:ZoneHVAC:EquipmentList,
  {9ae1286f-a530-4afe-8e69-e117c3181687}, !- Handle
  Zone HVAC Equipment List 2,             !- Name
  {04c6fa96-f833-4c78-be24-4b7fe4082fc3}; !- Thermal Zone

OS:AdditionalProperties,
  {9972ae0b-42e7-4c04-bdd9-6a19b09b2de6}, !- Handle
  {04c6fa96-f833-4c78-be24-4b7fe4082fc3}, !- Object Name
  ObjectType,                             !- Feature Name 1
  String,                                 !- Feature Data Type 1
  attic - vented;                         !- Feature Value 1

OS:Space,
  {50cb3498-148d-4eea-adef-2b39fa707161}, !- Handle
  attic - vented 1,                       !- Name
  ,                                       !- Space Type Name
  ,                                       !- Default Construction Set Name
  ,                                       !- Default Schedule Set Name
  ,                                       !- Direction of Relative North {deg}
  ,                                       !- X Origin {m}
  ,                                       !- Y Origin {m}
  ,                                       !- Z Origin {m}
  ,                                       !- Building Story Name
  {04c6fa96-f833-4c78-be24-4b7fe4082fc3}, !- Thermal Zone Name
  ,                                       !- Part of Total Floor Area
  ,                                       !- Design Specification Outdoor Air Object Name
  ,                                       !- Building Unit Name
  356.389957095237;                       !- Volume {m3}

OS:Material,
  {4a7baef8-858e-4822-9fad-b108d7f73351}, !- Handle
  asphalt or fiberglass shingles,         !- Name
  Rough,                                  !- Roughness
  0.00635,                                !- Thickness {m}
  0.162714,                               !- Conductivity {W/m-K}
  1121.4,                                 !- Density {kg/m3}
  1465.45,                                !- Specific Heat {J/kg-K}
  0.9,                                    !- Thermal Absorptance
  0.85,                                   !- Solar Absorptance