
OS:Version,
  {51d0264c-39c5-4ae7-abba-1341eb593415}, !- Handle
  3.10.0;                                 !- Version Identifier

OS:SimulationControl,
  {9bfa10d8-5877-4414-bc3b-6850924a0533}, !- Handle
  ,                                       !- Do Zone Sizing Calculation
  ,                                       !- Do System Sizing Calculation
  ,                                       !- Do Plant Sizing Calculation
  No;                                     !- Run Simulation for Sizing Periods

OS:Timestep,
  {f5c2c60d-3bf2-478b-8c91-f9bccd0dca79}, !- Handle
  1;                                      !- Number of Timesteps per Hour

OS:ShadowCalculation,
  {ff94a3f0-293e-43d1-98b0-ee4b5d76496c}, !- Handle
  PolygonClipping,                        !- Shading Calculation Method
  ,                                       !- Shading Calculation Update Frequency Method
  20,                                     !- Shading Calculation Update Frequency
  200,                                    !- Maximum Figures in Shadow Overlap Calculations
  ,                                       !- Polygon Clipping Algorithm
  512,                                    !- Pixel Counting Resolution
  ,                                       !- Sky Diffuse Modeling Algorithm
  No,                                     !- Output External Shading Calculation Results
  No,                                     !- Disable Self-Shading Within Shading Zone Groups
  No;                                     !- Disable Self-Shading From Shading Zone Groups to Other Zones

OS:SurfaceConvectionAlgorithm:Outside,
  {cfb21745-398b-46c0-bd55-7aa7ebbf0537}, !- Handle
  DOE-2;                                  !- Algorithm

OS:SurfaceConvectionAlgorithm:Inside,
  {1342d0d0-6ca0-407b-bc3b-695e9bb501ba}, !- Handle
  TARP;                                   !- Algorithm

OS:ZoneCapacitanceMultiplier:ResearchSpecial,
  {dceb9410-c071-4597-8ebf-a26565691ef0}, !- Handle
  7,                                      !- Temperature Capacity Multiplier
  15,                                     !- Humidity Capacity Multiplier
  ;                                       !- Carbon Dioxide Capacity Multiplier

OS:ConvergenceLimits,
  {7660bbe8-fd29-470f-a348-0b18b80aa0d9}, !- Handle
  0;                                      !- Minimum System Timestep {minutes}

OS:RunPeriod,
  {a386cc07-1bf7-4efc-9227-d16c689a9f76}, !- Handle
  Run Period 1,                           !- Name
  1,                                      !- Begin Month
  1,                                      !- Begin Day of Month
  12,                                     !- End Month
  31,                                     !- End Day of Month
  ,                                       !- Use Weather File Holidays and Special Days
  ,                                       !- Use Weather File Daylight Saving Period
  ,                                       !- Apply Weekend Holiday Rule
  ,                                       !- Use Weather File Rain Indicators
  ,                                       !- Use Weather File Snow Indicators
  ;                                       !- Number of Times Runperiod to be Repeated

OS:PerformancePrecisionTradeoffs,
  {2ce488d5-a4f1-437a-ae6b-b15ee934ca59}, !- Handle
  ,                                       !- Use Coil Direct Solutions
  CarrollMRT;                             !- Zone Radiant Exchange Algorithm

OS:WeatherFile,
  {2c4580d0-7034-4c98-ab3f-399c07b9c6fa}, !- Handle
  Buffalo Niagara Intl Ap,                !- City
  NY,                                     !- State Province Region
  USA,                                    !- Country
  TMY3,                                   !- Data Source
  725280,                                 !- WMO Number
  42.93,                                  !- Latitude {deg}
  -78.73,                                 !- Longitude {deg}
  -5,                                     !- Time Zone {hr}
  215,                                    !- Elevation {m}
  /Users/nmoore/github/urbanopt-example-geojson-project/example_project/weather/USA_NY_Buffalo-Greater.Buffalo.Intl.AP.725280_TMY3.epw, !- Url
  6B50E0FF,                               !- Checksum
  ,                                       !- Start Date Actual Year
  Sunday;                                 !- Start Day of Week

OS:YearDescription,
  {5f2f8181-415b-4048-8a14-ddd94571145b}, !- Handle
  2007,                                   !- Calendar Year
  ,                                       !- Day of Week for Start Day
  ;                                       !- Is Leap Year

OS:Site,
  {ac7fbd32-ae05-4644-9d80-f464a38ef568}, !- Handle
  Buffalo Niagara Intl Ap_NY,             !- Name
  42.93,                                  !- Latitude {deg}
  -78.73,                                 !- Longitude {deg}
  -5,                                     !- Time Zone {hr}
  215,                                    !- Elevation {m}
  Suburbs,                                !- Terrain
  Yes;                                    !- Keep Site Location Information

OS:RunPeriodControl:DaylightSavingTime,
  {a3fdf98d-76c3-43d9-8d79-c9b9c8577d50}, !- Handle
  Mar 12,                                 !- Start Date
  Nov 5;                                  !- End Date

OS:Site:GroundTemperature:Shallow,
  {4a7652a5-e504-485c-8818-ca98c80e1d0a}, !- Handle
  4.30207395723828,                       !- January Surface Ground Temperature {C}
  2.29327249652502,                       !- February Surface Ground Temperature {C}
  2.13240047156047,                       !- March Surface Ground Temperature {C}
  3.08567940719286,                       !- April Surface Ground Temperature {C}
  6.91256312497526,                       !- May Surface Ground Temperature {C}
  10.7216195949507,                       !- June Surface Ground Temperature {C}
  14.0238679822574,                       !- July Surface Ground Temperature {C}
  16.1157611184724,                       !- August Surface Ground Temperature {C}
  16.2934789303462,                       !- September Surface Ground Temperature {C}
  14.5920754632847,                       !- October Surface Ground Temperature {C}
  11.374036348653,                        !- November Surface Ground Temperature {C}
  7.68182621661674;                       !- December Surface Ground Temperature {C}

OS:ThermalZone,
  {7089872b-601a-4f42-bbab-432f95632788}, !- Handle
  conditioned space,                      !- Name
  1,                                      !- Multiplier
  ,                                       !- Ceiling Height {m}
  692.06373070848,                        !- Volume {m3}
  ,                                       !- Floor Area {m2}
  ,                                       !- Zone Inside Convection Algorithm
  ,                                       !- Zone Outside Convection Algorithm
  ,                                       !- Zone Conditioning Equipment List Name
  {3cbb8cd2-9ea6-4b75-a2b8-376e76222212}, !- Zone Air Inlet Port List
  {b9a1bcb1-e43a-40a4-9b34-d781e215634a}, !- Zone Air Exhaust Port List
  {efc0b916-3184-4bab-aec0-8101f495f765}, !- Zone Air Node Name
  {c5f600b3-2692-4c13-80f6-6ad4f0bbdb6f}, !- Zone Return Air Port List
  ,                                       !- Primary Daylighting Control Name
  ,                                       !- Fraction of Zone Controlled by Primary Daylighting Control
  ,                                       !- Secondary Daylighting Control Name
  ,                                       !- Fraction of Zone Controlled by Secondary Daylighting Control
  ,                                       !- Illuminance Map Name
  ,                                       !- Group Rendering Name
  {79688987-dc06-40b5-845a-c2e0697dd4e6}, !- Thermostat Name
  No;                                     !- Use Ideal Air Loads

OS:Node,
  {88206f94-435c-4e0b-a457-1c2e4defa6e4}, !- Handle
  Node 1,                                 !- Name
  {efc0b916-3184-4bab-aec0-8101f495f765}, !- Inlet Port
  ;                                       !- Outlet Port

OS:Connection,
  {efc0b916-3184-4bab-aec0-8101f495f765}, !- Handle
  {7089872b-601a-4f42-bbab-432f95632788}, !- Source Object
  11,                                     !- Outlet Port
  {88206f94-435c-4e0b-a457-1c2e4defa6e4}, !- Target Object
  2;                                      !- Inlet Port

OS:PortList,
  {3cbb8cd2-9ea6-4b75-a2b8-376e76222212}, !- Handle
  {7089872b-601a-4f42-bbab-432f95632788}, !- HVAC Component
  {8b6acb23-6ba2-4314-b817-36ae69587a58}; !- Port 1

OS:PortList,
  {b9a1bcb1-e43a-40a4-9b34-d781e215634a}, !- Handle
  {7089872b-601a-4f42-bbab-432f95632788}; !- HVAC Component

OS:PortList,
  {c5f600b3-2692-4c13-80f6-6ad4f0bbdb6f}, !- Handle
  {7089872b-601a-4f42-bbab-432f95632788}, !- HVAC Component
  {b9c343b4-17f7-4fa2-9f95-eb3b22072f4e}; !- Port 1

OS:Sizing:Zone,
  {7389e87c-f2d4-4d80-bc1c-5a8a10d4b0d2}, !- Handle
  {7089872b-601a-4f42-bbab-432f95632788}, !- Zone or ZoneList Name
  SupplyAirTemperature,                   !- Zone Cooling Design Supply Air Temperature Input Method
  14,                                     !- Zone Cooling Design Supply Air Temperature {C}
  11.11,                                  !- Zone Cooling Design Supply Air Temperature Difference {deltaC}
  SupplyAirTemperature,                   !- Zone Heating Design Supply Air Temperature Input Method
  40,                                     !- Zone Heating Design Supply Air Temperature {C}
  11.11,                                  !- Zone Heating Design Supply Air Temperature Difference {deltaC}
  0.0085,                                 !- Zone Cooling Design Supply Air Humidity Ratio {kg-H2O/kg-air}
  0.008,                                  !- Zone Heating Design Supply Air Humidity Ratio {kg-H2O/kg-air}
  ,                                       !- Zone Heating Sizing Factor
  ,                                       !- Zone Cooling Sizing Factor
  DesignDay,                              !- Cooling Design Air Flow Method
  ,                                       !- Cooling Design Air Flow Rate {m3/s}
  ,                                       !- Cooling Minimum Air Flow per Zone Floor Area {m3/s-m2}
  ,                                       !- Cooling Minimum Air Flow {m3/s}
  ,                                       !- Cooling Minimum Air Flow Fraction
  DesignDay,                              !- Heating Design Air Flow Method
  ,                                       !- Heating Design Air Flow Rate {m3/s}
  ,                                       !- Heating Maximum Air Flow per Zone Floor Area {m3/s-m2}
  ,                                       !- Heating Maximum Air Flow {m3/s}
  ,                                       !- Heating Maximum Air Flow Fraction
  No,                                     !- Account for Dedicated Outdoor Air System
  NeutralSupplyAir,                       !- Dedicated Outdoor Air System Control Strategy
  autosize,                               !- Dedicated Outdoor Air Low Setpoint Temperature for Design {C}
  autosize,                               !- Dedicated Outdoor Air High Setpoint Temperature for Design {C}
  Sensible Load Only No Latent Load,      !- Zone Load Sizing Method
  HumidityRatioDifference,                !- Zone Latent Cooling Design Supply Air Humidity Ratio Input Method
  ,                                       !- Zone Dehumidification Design Supply Air Humidity Ratio {kgWater/kgDryAir}
  0.005,                                  !- Zone Cooling Design Supply Air Humidity Ratio Difference {kgWater/kgDryAir}
  HumidityRatioDifference,                !- Zone Latent Heating Design Supply Air Humidity Ratio Input Method
  ,                                       !- Zone Humidification Design Supply Air Humidity Ratio {kgWater/kgDryAir}
  0.005,                                  !- Zone Humidification Design Supply Air Humidity Ratio Difference {kgWater/kgDryAir}
  ,                                       !- Zone Humidistat Dehumidification Set Point Schedule Name
  ,                                       !- Zone Humidistat Humidification Set Point Schedule Name
  ,                                       !- Design Zone Air Distribution Effectiveness in Cooling Mode
  ,                                       !- Design Zone Air Distribution Effectiveness in Heating Mode
  ,                                       !- Design Zone Secondary Recirculation Fraction {dimensionless}
  ,                                       !- Design Minimum Zone Ventilation Efficiency {dimensionless}
  Coincident;                             !- Sizing Option

OS:ZoneHVAC:EquipmentList,
  {f18e59e5-f045-431d-b62b-7369555c7469}, !- Handle
  Zone HVAC Equipment List 1,             !- Name
  {7089872b-601a-4f42-bbab-432f95632788}, !- Thermal Zone
  ,                                       !- Load Distribution Scheme
  {c84fc786-99f0-47d2-91cd-3a94506af09a}, !- Zone Equipment 1
  1,                                      !- Zone Equipment Cooling Sequence 1
  1,                                      !- Zone Equipment Heating or No-Load Sequence 1
  {7ca904eb-6fd5-4deb-b105-21a614d6cde8}, !- Zone Equipment Sequential Cooling Fraction Schedule Name 1
  {d5d77531-8f8b-42c3-b756-9e66e3d79569}; !- Zone Equipment Sequential Heating Fraction Schedule Name 1

OS:AdditionalProperties,
  {963cc47b-2c8a-4985-b5d6-e8d4b32dab17}, !- Handle
  {7089872b-601a-4f42-bbab-432f95632788}, !- Object Name
  ObjectType,                             !- Feature Name 1
  String,                                 !- Feature Data Type 1
  conditioned space;                      !- Feature Value 1

OS:Space,
  {78c15e2c-195f-4d52-b481-779bc0419212}, !- Handle
  conditioned space 1,                    !- Name
  ,                                       !- Space Type Name
  ,                                       !- Default Construction Set Name
  ,                                       !- Default Schedule Set Name
  ,                                       !- Direction of Relative North {deg}
  ,                                       !- X Origin {m}
  ,                                       !- Y Origin {m}
  ,                                       !- Z Origin {m}
  ,                                       !- Building Story Name
  {7089872b-601a-4f42-bbab-432f95632788}, !- Thermal Zone Name
  ,                                       !- Part of Total Floor Area
  ,                                       !- Design Specification Outdoor Air Object Name
  ,                                       !- Building Unit Name
  692.06373070848;                        !- Volume {m3}

OS:Schedule:Ruleset,
  {b0d581f5-08ff-47e4-a702-f275a0b01958}, !- Handle
  heating setpoint,                       !- Name
  {d95d5442-fca9-419a-89e8-2d22eda23c7d}, !- Schedule Type Limits Name
  {ce6ba740-68b2-4f38-aaac-d1c44b066035}; !- Default Day Schedule Name

OS:Schedule:Day,
  {ce6ba740-68b2-4f38-aaac-d1c44b066035}, !- Handle
  heating setpoint default day,           !- Name
  {d95d5442-fca9-419a-89e8-2d22eda23c7d}, !- Schedule Type Limits Name
  ,                                       !- Interpolate to Timestep
  24,                                     !- Hour 1
  0,                                      !- Minute 1
  0;                                      !- Value Until Time 1

OS:Schedule:Rule,
  {652be48a-f9bc-4c7d-8551-b5e34305e48b}, !- Handle
  heating setpoint allday rule,           !- Name
  {b0d581f5-08ff-47e4-a702-f275a0b01958}, !- Schedule Ruleset Name
  0,                                      !- Rule Order
  {cb4d1b81-1338-4e56-a2e5-1c285989e3dd}, !- Day Schedule Name
  Yes,                                    !- Apply Sunday
  Yes,                                    !- Apply Monday
  Yes,                                    !- Apply Tuesday
  Yes,                                    !- Apply Wednesday
  Yes,                                    !- Apply Thursday
  Yes,                                    !- Apply Friday
  Yes,                                    !- Apply Saturday
  DateRange,                              !- Date Specification Type
  1,                                      !- Start Month
  1,                                      !- Start Day
  12,                                     !- End Month
  31;                                     !- End Day

OS:Schedule:Day,
  {cb4d1b81-1338-4e56-a2e5-1c285989e3dd}, !- Handle
  heating setpoint day,                   !- Name
  {d95d5442-fca9-419a-89e8-2d22eda23c7d}, !- Schedule Type Limits Name
  ,                                       !- Interpolate to Timestep
  24,                                     !- Hour 1
  0,                                      !- Minute 1
  20;                                     !- Value Until Time 1

OS:Schedule:Ruleset,
  {aeba1687-71c3-49e2-b95a-b8bd68166f5f}, !- Handle
  cooling setpoint,                       !- Name
  {d95d5442-fca9-419a-89e8-2d22eda23c7d}, !- Schedule Type Limits Name
  {5609f52d-4a98-4068-9d80-c8c3cc09eb9c}; !- Default Day Schedule Name

OS:Schedule:Day,
  {5609f52d-4a98-4068-9d80-c8c3cc09eb9c}, !- Handle
  cooling setpoint default day,           !- Name
  {d95d5442-fca9-419a-89e8-2d22eda23c7d}, !- Schedule Type Limits Name
  ,                                       !- Interpolate to Timestep
  24,                                     !- Hour 1
  0,                                      !- Minute 1
  0;                                      !- Value Until Time 1

OS:Schedule:Rule,
  {c1aba27c-6acd-41de-a4b7-d24b7a90935a}, !- Handle
  cooling setpoint allday rule,           !- Name
  {aeba1687-71c3-49e2-b95a-b8bd68166f5f}, !- Schedule Ruleset Name
  0,                                      !- Rule Order
  {46327680-5e96-47c0-8827-98945145d8e9}, !- Day Schedule Name
  Yes,                                    !- Apply Sunday
  Yes,                                    !- Apply Monday
  Yes,                                    !- Apply Tuesday
  Yes,                                    !- Apply Wednesday
  Yes,                                    !- Apply Thursday
  Yes,                                    !- Apply Friday
  Yes,                                    !- Apply Saturday
  DateRange,                              !- Date Specification Type
  1,                                      !- Start Month
  1,                                      !- Start Day
  12,                                     !- End Month
  31;                                     !- End Day

OS:Schedule:Day,
  {46327680-5e96-47c0-8827-98945145d8e9}, !- Handle
  cooling setpoint day,                   !- Name
  {d95d5442-fca9-419a-89e8-2d22eda23c7d}, !- Schedule Type Limits Name
  ,                                       !- Interpolate to Timestep
  24,                                     !- Hour 1
  0,                                      !- Minute 1
  25.5555555555556;                       !- Value Until Time 1

OS:ThermostatSetpoint:DualSetpoint,
  {79688987-dc06-40b5-845a-c2e0697dd4e6}, !- Handle
  conditioned space temperature setpoint, !- Name
  {b0d581f5-08ff-47e4-a702-f275a0b01958}, !- Heating Setpoint Temperature Schedule Name
  {aeba1687-71c3-49e2-b95a-b8bd68166f5f}, !- Cooling Setpoint Temperature Schedule Name
  0;                                      !- Temperature Difference Between Cutout And Setpoint {deltaC}

OS:ScheduleTypeLimits,
  {d95d5442-fca9-419a-89e8-2d22eda23c7d}, !- Handle
  Temperature,                            !- Name
  ,                                       !- Lower Limit Value
  ,                                       !- Upper Limit Value
  Continuous,                             !- Numeric Type
  Temperature;                            !- Unit Type

OS:Surface,
  {82ee8505-77a7-46e9-b4f4-1805d6ae8864}, !- Handle
  Roof1,                                  !- Name
  RoofCeiling,                            !- Surface Type
  {acd60863-cf25-4a27-888b-5273b5c3365c}, !- Construction Name
  {031a7501-3bef-4267-a498-611afd7dc533}, !- Space Name
  Outdoors,                               !- Outside Boundary Condition
  ,                                       !- Outside Boundary Condition Object
  SunExposed,                             !- Sun Exposure
  WindExposed,                            !- Wind Exposure
  ,                                       !- View Factor to Ground
  ,                                       !- Number of Vertices
  -26.9347048849634, 58.0557891618865, 2.4384, !- X,Y,Z Vertex 1 {m}
  -26.9347048849634, 46.7895631136661, 8.0715130241102, !- X,Y,Z Vertex 2 {m}
  -14.3386812381136, 46.7895631136661, 8.0715130241102, !- X,Y,Z Vertex 3 {m}
  -14.3386812381136, 58.0557891618865, 2.4384; !- X,Y,Z Vertex 4 {m}

OS:AdditionalProperties,
  {989f3720-365f-4439-b554-7d8214fd3bc6}, !- Handle
  {82ee8505-77a7-46e9-b4f4-1805d6ae8864}, !- Object Name
  Length,                                 !- Feature Name 1
  Double,                                 !- Feature Data Type 1
  41.325536899113608,                     !- Feature Value 1
  Width,                                  !- Feature Name 2
  Double,                                 !- Feature Data Type 2
  41.325536899113601,                     !- Feature Value 2
  Azimuth,                                !- Feature Name 3
  Integer,                                !- Feature Data Type 3
  0,                                      !- Feature Value 3
  Tilt,                                   !- Feature Name 4
  Double,                                 !- Feature Data Type 4
  0.5,                                    !- Feature Value 4
  SurfaceType,                            !- Feature Name 5
  String,                                 !- Feature Data Type 5
  Roof;                                   !- Feature Value 5

OS:ThermalZone,
  {5bec95fa-0f80-4f34-8599-54a9e7344a60}, !- Handle
  attic - vented,                         !- Name
  1,                                      !- Multiplier
  ,                                       !- Ceiling Height {m}
  356.390921899745,                       !- Volume {m3}
  ,                                       !- Floor Area {m2}
  ,                                       !- Zone Inside Convection Algorithm
  ,                                       !- Zone Outside Convection Algorithm
  ,                                       !- Zone Conditioning Equipment List Name
  {b2e3c664-cb29-432d-b446-ea4faff63ae3}, !- Zone Air Inlet Port List
  {f3050e7b-f4a2-47c7-9484-1c32a4eb6b95}, !- Zone Air Exhaust Port List
  {1e621b7e-8fa3-44fc-aedf-6227df647a61}, !- Zone Air Node Name
  {0a553a32-cd91-4b67-a011-acd6f07b7a43}, !- Zone Return Air Port List
  ,                                       !- Primary Daylighting Control Name
  ,                                       !- Fraction of Zone Controlled by Primary Daylighting Control
  ,                                       !- Secondary Daylighting Control Name
  ,                                       !- Fraction of Zone Controlled by Secondary Daylighting Control
  ,                                       !- Illuminance Map Name
  ,                                       !- Group Rendering Name
  ,                                       !- Thermostat Name
  No;                                     !- Use Ideal Air Loads

OS:Node,
  {8f9da921-dc52-4156-bece-5375207345e7}, !- Handle
  Node 2,                                 !- Name
  {1e621b7e-8fa3-44fc-aedf-6227df647a61}, !- Inlet Port
  ;                                       !- Outlet Port

OS:Connection,
  {1e621b7e-8fa3-44fc-aedf-6227df647a61}, !- Handle
  {5bec95fa-0f80-4f34-8599-54a9e7344a60}, !- Source Object
  11,                                     !- Outlet Port
  {8f9da921-dc52-4156-bece-5375207345e7}, !- Target Object
  2;                                      !- Inlet Port

OS:PortList,
  {b2e3c664-cb29-432d-b446-ea4faff63ae3}, !- Handle
  {5bec95fa-0f80-4f34-8599-54a9e7344a60}; !- HVAC Component

OS:PortList,
  {f3050e7b-f4a2-47c7-9484-1c32a4eb6b95}, !- Handle
  {5bec95fa-0f80-4f34-8599-54a9e7344a60}; !- HVAC Component

OS:PortList,
  {0a553a32-cd91-4b67-a011-acd6f07b7a43}, !- Handle
  {5bec95fa-0f80-4f34-8599-54a9e7344a60}; !- HVAC Component

OS:Sizing:Zone,
  {c7f764e3-2f9d-428c-9e21-055c3b8262fa}, !- Handle
  {5bec95fa-0f80-4f34-8599-54a9e7344a60}, !- Zone or ZoneList Name
  SupplyAirTemperature,                   !- Zone Cooling Design Supply Air Temperature Input Method
  14,                                     !- Zone Cooling Design Supply Air Temperature {C}
  11.11,                                  !- Zone Cooling Design Supply Air Temperature Difference {deltaC}
  SupplyAirTemperature,                   !- Zone Heating Design Supply Air Temperature Input Method
  40,                                     !- Zone Heating Design Supply Air Temperature {C}
  11.11,                                  !- Zone Heating Design Supply Air Temperature Difference {deltaC}
  0.0085,                                 !- Zone Cooling Design Supply Air Humidity Ratio {kg-H2O/kg-air}
  0.008,                                  !- Zone Heating Design Supply Air Humidity Ratio {kg-H2O/kg-air}
  ,                                       !- Zone Heating Sizing Factor
  ,                                       !- Zone Cooling Sizing Factor
  DesignDay,                              !- Cooling Design Air Flow Method
  ,                                       !- Cooling Design Air Flow Rate {m3/s}
  ,                                       !- Cooling Minimum Air Flow per Zone Floor Area {m3/s-m2}
  ,                                       !- Cooling Minimum Air Flow {m3/s}
  ,                                       !- Cooling Minimum Air Flow Fraction
  DesignDay,                              !- Heating Design Air Flow Method
  ,                                       !- Heating Design Air Flow Rate {m3/s}
  ,                                       !- Heating Maximum Air Flow per Zone Floor Area {m3/s-m2}
  ,                                       !- Heating Maximum Air Flow {m3/s}
  ,                                       !- Heating Maximum Air Flow Fraction
  No,                                     !- Account for Dedicated Outdoor Air System
  NeutralSupplyAir,                       !- Dedicated Outdoor Air System Control Strategy
  autosize,                               !- Dedicated Outdoor Air Low Setpoint Temperature for Design {C}
  autosize,                               !- Dedicated Outdoor Air High Setpoint Temperature for Design {C}
  Sensible Load Only No Latent Load,      !- Zone Load Sizing Method
  HumidityRatioDifference,                !- Zone Latent Cooling Design Supply Air Humidity Ratio Input Method
  ,                                       !- Zone Dehumidification Design Supply Air Humidity Ratio {kgWater/kgDryAir}
  0.005,                                  !- Zone Cooling Design Supply Air Humidity Ratio Difference {kgWater/kgDryAir}
  HumidityRatioDifference,                !- Zone Latent Heating Design Supply Air Humidity Ratio Input Method
  ,                                       !- Zone Humidification Design Supply Air Humidity Ratio {kgWater/kgDryAir}
  0.005,                                  !- Zone Humidification Design Supply Air Humidity Ratio Difference {kgWater/kgDryAir}
  ,                                       !- Zone Humidistat Dehumidification Set Point Schedule Name
  ,                                       !- Zone Humidistat Humidification Set Point Schedule Name
  ,                                       !- Design Zone Air Distribution Effectiveness in Cooling Mode
  ,                                       !- Design Zone Air Distribution Effectiveness in Heating Mode
  ,                                       !- Design Zone Secondary Recirculation Fraction {dimensionless}
  ,                                       !- Design Minimum Zone Ventilation Efficiency {dimensionless}
  Coincident;                             !- Sizing Option

OS:ZoneHVAC:EquipmentList,
  {95ec183a-117f-4375-b094-20b63c7c0993}, !- Handle
  Zone HVAC Equipment List 2,             !- Name
  {5bec95fa-0f80-4f34-8599-54a9e7344a60}; !- Thermal Zone

OS:AdditionalProperties,
  {654eab76-671e-4d0c-9dc5-c7e769655e7a}, !- Handle
  {5bec95fa-0f80-4f34-8599-54a9e7344a60}, !- Object Name
  ObjectType,                             !- Feature Name 1
  String,                                 !- Feature Data Type 1
  attic - vented;                         !- Feature Value 1

OS:Space,
  {031a7501-3bef-4267-a498-611afd7dc533}, !- Handle
  attic - vented 1,                       !- Name
  ,                                       !- Space Type Name
  ,                                       !- Default Construction Set Name
  ,                                       !- Default Schedule Set Name
  ,                                       !- Direction of Relative North {deg}
  ,                                       !- X Origin {m}
  ,                                       !- Y Origin {m}
  ,                                       !- Z Origin {m}
  ,                                       !- Building Story Name
  {5bec95fa-0f80-4f34-8599-54a9e7344a60}, !- Thermal Zone Name
  ,                                       !- Part of Total Floor Area
  ,                                       !- Design Specification Outdoor Air Object Name
  ,                                       !- Building Unit Name
  356.390921899745;                       !- Volume {m3}

OS:Material,
  {8432a660-dc59-4736-aced-12465345fff5}, !- Handle
  asphalt or fiberglass shingles,         !- Name
  Rough,                                  !- Roughness
  0.00635,                                !- Thickness {m}
  0.162714,                               !- Conductivity {W/m-K}
  1121.4,                                 !- Density {kg/m3}
  1465.45,                                !- Specific Heat {J/kg-K}
  0.9,                                    !- Thermal Absorptance
  0.85,                                   !- Solar Absorptance