
OS:Version,
  {b2fc8478-3293-4913-b44f-38d3ca02812d}, !- Handle
  3.9.0;                                  !- Version Identifier

OS:SimulationControl,
  {2df28946-5af8-4648-81ce-f1b84cd6107d}, !- Handle
  ,                                       !- Do Zone Sizing Calculation
  ,                                       !- Do System Sizing Calculation
  ,                                       !- Do Plant Sizing Calculation
  No;                                     !- Run Simulation for Sizing Periods

OS:Timestep,
  {a6fadf43-18fb-4686-8a01-8f06e1d17828}, !- Handle
  1;                                      !- Number of Timesteps per Hour

OS:ShadowCalculation,
  {3774630b-f06d-47a3-a42f-e1a70d0593fb}, !- Handle
  PolygonClipping,                        !- Shading Calculation Method
  ,                                       !- Shading Calculation Update Frequency Method
  20,                                     !- Shading Calculation Update Frequency
  200,                                    !- Maximum Figures in Shadow Overlap Calculations
  ,                                       !- Polygon Clipping Algorithm
  512,                                    !- Pixel Counting Resolution
  ,                                       !- Sky Diffuse Modeling Algorithm
  No,                                     !- Output External Shading Calculation Results
  No,                                     !- Disable Self-Shading Within Shading Zone Groups
  No;                                     !- Disable Self-Shading From Shading Zone Groups to Other Zones

OS:SurfaceConvectionAlgorithm:Outside,
  {222cfcc4-c225-4d69-9b0b-ef90a43531c8}, !- Handle
  DOE-2;                                  !- Algorithm

OS:SurfaceConvectionAlgorithm:Inside,
  {64860047-4f42-4f05-83e9-ab05546d6862}, !- Handle
  TARP;                                   !- Algorithm

OS:ZoneCapacitanceMultiplier:ResearchSpecial,
  {0becf6bf-5ae7-4464-afcb-8250717ad4f6}, !- Handle
  7,                                      !- Temperature Capacity Multiplier
  15,                                     !- Humidity Capacity Multiplier
  ;                                       !- Carbon Dioxide Capacity Multiplier

OS:ConvergenceLimits,
  {2da6ec5b-ead0-4595-8a50-e261b4e7c78d}, !- Handle
  0;                                      !- Minimum System Timestep {minutes}

OS:RunPeriod,
  {29539886-2732-4257-8867-e28200a5e84f}, !- Handle
  Run Period 1,                           !- Name
  1,                                      !- Begin Month
  1,                                      !- Begin Day of Month
  12,                                     !- End Month
  31,                                     !- End Day of Month
  ,                                       !- Use Weather File Holidays and Special Days
  ,                                       !- Use Weather File Daylight Saving Period
  ,                                       !- Apply Weekend Holiday Rule
  ,                                       !- Use Weather File Rain Indicators
  ,                                       !- Use Weather File Snow Indicators
  ;                                       !- Number of Times Runperiod to be Repeated

OS:PerformancePrecisionTradeoffs,
  {b218c9b6-fa12-4119-add8-d9f496579ed3}, !- Handle
  ,                                       !- Use Coil Direct Solutions
  CarrollMRT;                             !- Zone Radiant Exchange Algorithm

OS:WeatherFile,
  {6dbf4da0-009d-47b5-a6cf-814a6964fd8e}, !- Handle
  Buffalo Niagara Intl Ap,                !- City
  NY,                                     !- State Province Region
  USA,                                    !- Country
  TMY3,                                   !- Data Source
  725280,                                 !- WMO Number
  42.93,                                  !- Latitude {deg}
  -78.73,                                 !- Longitude {deg}
  -5,                                     !- Time Zone {hr}
  215,                                    !- Elevation {m}
  /Users/nmoore/github/urbanopt-example-geojson-project/example_project/weather/USA_NY_Buffalo-Greater.Buffalo.Intl.AP.725280_TMY3.epw, !- Url
  6B50E0FF,                               !- Checksum
  ,                                       !- Start Date Actual Year
  Sunday;                                 !- Start Day of Week

OS:YearDescription,
  {7463304d-98ac-4f75-8f8c-76a043d6b318}, !- Handle
  2007,                                   !- Calendar Year
  ,                                       !- Day of Week for Start Day
  ;                                       !- Is Leap Year

OS:Site,
  {45af1159-34e4-4dd3-8206-87df3a2ecb79}, !- Handle
  Buffalo Niagara Intl Ap_NY,             !- Name
  42.93,                                  !- Latitude {deg}
  -78.73,                                 !- Longitude {deg}
  -5,                                     !- Time Zone {hr}
  215,                                    !- Elevation {m}
  Suburbs,                                !- Terrain
  Yes;                                    !- Keep Site Location Information

OS:RunPeriodControl:DaylightSavingTime,
  {af1e3de5-3881-4ef7-a32d-e8f2327a6539}, !- Handle
  Mar 12,                                 !- Start Date
  Nov 5;                                  !- End Date

OS:Site:GroundTemperature:Shallow,
  {25aa5286-e21d-46ad-a261-cc9f9807b2ef}, !- Handle
  4.30207395723828,                       !- January Surface Ground Temperature {C}
  2.29327249652502,                       !- February Surface Ground Temperature {C}
  2.13240047156047,                       !- March Surface Ground Temperature {C}
  3.08567940719286,                       !- April Surface Ground Temperature {C}
  6.91256312497526,                       !- May Surface Ground Temperature {C}
  10.7216195949507,                       !- June Surface Ground Temperature {C}
  14.0238679822574,                       !- July Surface Ground Temperature {C}
  16.1157611184724,                       !- August Surface Ground Temperature {C}
  16.2934789303462,                       !- September Surface Ground Temperature {C}
  14.5920754632847,                       !- October Surface Ground Temperature {C}
  11.374036348653,                        !- November Surface Ground Temperature {C}
  7.68182621661674;                       !- December Surface Ground Temperature {C}

OS:ThermalZone,
  {42d1507f-88a6-4331-9452-91e37d1ba8e8}, !- Handle
  conditioned space,                      !- Name
  1,                                      !- Multiplier
  ,                                       !- Ceiling Height {m}
  692.06373070848,                        !- Volume {m3}
  ,                                       !- Floor Area {m2}
  ,                                       !- Zone Inside Convection Algorithm
  ,                                       !- Zone Outside Convection Algorithm
  ,                                       !- Zone Conditioning Equipment List Name
  {30695411-d9cf-4b68-a2bf-2439d074a2d5}, !- Zone Air Inlet Port List
  {27ffd133-c54c-40f9-9695-3ed8ade5b151}, !- Zone Air Exhaust Port List
  {a5c2bc7f-d175-4763-a6df-debdde0b6e5d}, !- Zone Air Node Name
  {2dec6486-795b-4e68-b23e-fd57026d0fac}, !- Zone Return Air Port List
  ,                                       !- Primary Daylighting Control Name
  ,                                       !- Fraction of Zone Controlled by Primary Daylighting Control
  ,                                       !- Secondary Daylighting Control Name
  ,                                       !- Fraction of Zone Controlled by Secondary Daylighting Control
  ,                                       !- Illuminance Map Name
  ,                                       !- Group Rendering Name
  {abc7a759-9b81-4572-825e-63935570d495}, !- Thermostat Name
  No;                                     !- Use Ideal Air Loads

OS:Node,
  {0b5aad53-4129-409a-8940-82233b741e8a}, !- Handle
  Node 1,                                 !- Name
  {a5c2bc7f-d175-4763-a6df-debdde0b6e5d}, !- Inlet Port
  ;                                       !- Outlet Port

OS:Connection,
  {a5c2bc7f-d175-4763-a6df-debdde0b6e5d}, !- Handle
  {42d1507f-88a6-4331-9452-91e37d1ba8e8}, !- Source Object
  11,                                     !- Outlet Port
  {0b5aad53-4129-409a-8940-82233b741e8a}, !- Target Object
  2;                                      !- Inlet Port

OS:PortList,
  {30695411-d9cf-4b68-a2bf-2439d074a2d5}, !- Handle
  {42d1507f-88a6-4331-9452-91e37d1ba8e8}, !- HVAC Component
  {f28b3c3e-3823-448c-8ab2-e3a530e275a1}; !- Port 1

OS:PortList,
  {27ffd133-c54c-40f9-9695-3ed8ade5b151}, !- Handle
  {42d1507f-88a6-4331-9452-91e37d1ba8e8}; !- HVAC Component

OS:PortList,
  {2dec6486-795b-4e68-b23e-fd57026d0fac}, !- Handle
  {42d1507f-88a6-4331-9452-91e37d1ba8e8}, !- HVAC Component
  {fd591c0f-1fcb-4693-b4a8-93703dfb8c5c}; !- Port 1

OS:Sizing:Zone,
  {ce232c38-69fd-4aee-ac9e-45ee417eda91}, !- Handle
  {42d1507f-88a6-4331-9452-91e37d1ba8e8}, !- Zone or ZoneList Name
  SupplyAirTemperature,                   !- Zone Cooling Design Supply Air Temperature Input Method
  14,                                     !- Zone Cooling Design Supply Air Temperature {C}
  11.11,                                  !- Zone Cooling Design Supply Air Temperature Difference {deltaC}
  SupplyAirTemperature,                   !- Zone Heating Design Supply Air Temperature Input Method
  40,                                     !- Zone Heating Design Supply Air Temperature {C}
  11.11,                                  !- Zone Heating Design Supply Air Temperature Difference {deltaC}
  0.0085,                                 !- Zone Cooling Design Supply Air Humidity Ratio {kg-H2O/kg-air}
  0.008,                                  !- Zone Heating Design Supply Air Humidity Ratio {kg-H2O/kg-air}
  ,                                       !- Zone Heating Sizing Factor
  ,                                       !- Zone Cooling Sizing Factor
  DesignDay,                              !- Cooling Design Air Flow Method
  ,                                       !- Cooling Design Air Flow Rate {m3/s}
  ,                                       !- Cooling Minimum Air Flow per Zone Floor Area {m3/s-m2}
  ,                                       !- Cooling Minimum Air Flow {m3/s}
  ,                                       !- Cooling Minimum Air Flow Fraction
  DesignDay,                              !- Heating Design Air Flow Method
  ,                                       !- Heating Design Air Flow Rate {m3/s}
  ,                                       !- Heating Maximum Air Flow per Zone Floor Area {m3/s-m2}
  ,                                       !- Heating Maximum Air Flow {m3/s}
  ,                                       !- Heating Maximum Air Flow Fraction
  No,                                     !- Account for Dedicated Outdoor Air System
  NeutralSupplyAir,                       !- Dedicated Outdoor Air System Control Strategy
  autosize,                               !- Dedicated Outdoor Air Low Setpoint Temperature for Design {C}
  autosize,                               !- Dedicated Outdoor Air High Setpoint Temperature for Design {C}
  Sensible Load Only No Latent Load,      !- Zone Load Sizing Method
  HumidityRatioDifference,                !- Zone Latent Cooling Design Supply Air Humidity Ratio Input Method
  ,                                       !- Zone Dehumidification Design Supply Air Humidity Ratio {kgWater/kgDryAir}
  0.005,                                  !- Zone Cooling Design Supply Air Humidity Ratio Difference {kgWater/kgDryAir}
  HumidityRatioDifference,                !- Zone Latent Heating Design Supply Air Humidity Ratio Input Method
  ,                                       !- Zone Humidification Design Supply Air Humidity Ratio {kgWater/kgDryAir}
  0.005,                                  !- Zone Humidification Design Supply Air Humidity Ratio Difference {kgWater/kgDryAir}
  ,                                       !- Zone Humidistat Dehumidification Set Point Schedule Name
  ,                                       !- Zone Humidistat Humidification Set Point Schedule Name
  ,                                       !- Design Zone Air Distribution Effectiveness in Cooling Mode
  ,                                       !- Design Zone Air Distribution Effectiveness in Heating Mode
  ,                                       !- Design Zone Secondary Recirculation Fraction {dimensionless}
  ,                                       !- Design Minimum Zone Ventilation Efficiency {dimensionless}
  Coincident;                             !- Sizing Option

OS:ZoneHVAC:EquipmentList,
  {fb149be8-a094-4788-bfe4-e36a58de0782}, !- Handle
  Zone HVAC Equipment List 1,             !- Name
  {42d1507f-88a6-4331-9452-91e37d1ba8e8}, !- Thermal Zone
  ,                                       !- Load Distribution Scheme
  {5c46a557-ff05-4a27-af1d-273e5c40da01}, !- Zone Equipment 1
  1,                                      !- Zone Equipment Cooling Sequence 1
  1,                                      !- Zone Equipment Heating or No-Load Sequence 1
  {d73dce95-f512-4de5-89f1-5e699d43c87c}, !- Zone Equipment Sequential Cooling Fraction Schedule Name 1
  {04a71b5e-91fc-4d05-89e3-76e00af5df8e}; !- Zone Equipment Sequential Heating Fraction Schedule Name 1

OS:AdditionalProperties,
  {a05c2e28-c0ab-4386-b057-99a2c8352b41}, !- Handle
  {42d1507f-88a6-4331-9452-91e37d1ba8e8}, !- Object Name
  ObjectType,                             !- Feature Name 1
  String,                                 !- Feature Data Type 1
  conditioned space;                      !- Feature Value 1

OS:Space,
  {56f1805e-a7e2-4c22-8dbd-09b6e55483ea}, !- Handle
  conditioned space 1,                    !- Name
  ,                                       !- Space Type Name
  ,                                       !- Default Construction Set Name
  ,                                       !- Default Schedule Set Name
  ,                                       !- Direction of Relative North {deg}
  ,                                       !- X Origin {m}
  ,                                       !- Y Origin {m}
  ,                                       !- Z Origin {m}
  ,                                       !- Building Story Name
  {42d1507f-88a6-4331-9452-91e37d1ba8e8}, !- Thermal Zone Name
  ,                                       !- Part of Total Floor Area
  ,                                       !- Design Specification Outdoor Air Object Name
  ,                                       !- Building Unit Name
  692.06373070848;                        !- Volume {m3}

OS:Schedule:Ruleset,
  {2204144d-de56-4cee-8b6c-85bd325401dd}, !- Handle
  heating setpoint,                       !- Name
  {ac5fd4ab-3c24-4988-aca3-bfeb543ff16e}, !- Schedule Type Limits Name
  {6d30ee97-bb99-4fdb-8020-8c9f46a6b2a1}; !- Default Day Schedule Name

OS:Schedule:Day,
  {6d30ee97-bb99-4fdb-8020-8c9f46a6b2a1}, !- Handle
  heating setpoint default day,           !- Name
  {ac5fd4ab-3c24-4988-aca3-bfeb543ff16e}, !- Schedule Type Limits Name
  ,                                       !- Interpolate to Timestep
  24,                                     !- Hour 1
  0,                                      !- Minute 1
  0;                                      !- Value Until Time 1

OS:Schedule:Rule,
  {e1dd0bdf-cfb0-4ac3-8791-fcf7f8f9198d}, !- Handle
  heating setpoint allday rule,           !- Name
  {2204144d-de56-4cee-8b6c-85bd325401dd}, !- Schedule Ruleset Name
  0,                                      !- Rule Order
  {d8f42427-6806-4a50-897a-a00ab5e9167b}, !- Day Schedule Name
  Yes,                                    !- Apply Sunday
  Yes,                                    !- Apply Monday
  Yes,                                    !- Apply Tuesday
  Yes,                                    !- Apply Wednesday
  Yes,                                    !- Apply Thursday
  Yes,                                    !- Apply Friday
  Yes,                                    !- Apply Saturday
  DateRange,                              !- Date Specification Type
  1,                                      !- Start Month
  1,                                      !- Start Day
  12,                                     !- End Month
  31;                                     !- End Day

OS:Schedule:Day,
  {d8f42427-6806-4a50-897a-a00ab5e9167b}, !- Handle
  heating setpoint day,                   !- Name
  {ac5fd4ab-3c24-4988-aca3-bfeb543ff16e}, !- Schedule Type Limits Name
  ,                                       !- Interpolate to Timestep
  24,                                     !- Hour 1
  0,                                      !- Minute 1
  20;                                     !- Value Until Time 1

OS:Schedule:Ruleset,
  {2a5fc4f0-3458-41be-88e3-23f16232257c}, !- Handle
  cooling setpoint,                       !- Name
  {ac5fd4ab-3c24-4988-aca3-bfeb543ff16e}, !- Schedule Type Limits Name
  {54de6adb-73d5-492d-a511-5ac501a83c36}; !- Default Day Schedule Name

OS:Schedule:Day,
  {54de6adb-73d5-492d-a511-5ac501a83c36}, !- Handle
  cooling setpoint default day,           !- Name
  {ac5fd4ab-3c24-4988-aca3-bfeb543ff16e}, !- Schedule Type Limits Name
  ,                                       !- Interpolate to Timestep
  24,                                     !- Hour 1
  0,                                      !- Minute 1
  0;                                      !- Value Until Time 1

OS:Schedule:Rule,
  {4c29d8e7-7197-4af8-9ebe-bbb9a6acfaa1}, !- Handle
  cooling setpoint allday rule,           !- Name
  {2a5fc4f0-3458-41be-88e3-23f16232257c}, !- Schedule Ruleset Name
  0,                                      !- Rule Order
  {c427271d-4cd1-490c-8657-7eeb10011ff6}, !- Day Schedule Name
  Yes,                                    !- Apply Sunday
  Yes,                                    !- Apply Monday
  Yes,                                    !- Apply Tuesday
  Yes,                                    !- Apply Wednesday
  Yes,                                    !- Apply Thursday
  Yes,                                    !- Apply Friday
  Yes,                                    !- Apply Saturday
  DateRange,                              !- Date Specification Type
  1,                                      !- Start Month
  1,                                      !- Start Day
  12,                                     !- End Month
  31;                                     !- End Day

OS:Schedule:Day,
  {c427271d-4cd1-490c-8657-7eeb10011ff6}, !- Handle
  cooling setpoint day,                   !- Name
  {ac5fd4ab-3c24-4988-aca3-bfeb543ff16e}, !- Schedule Type Limits Name
  ,                                       !- Interpolate to Timestep
  24,                                     !- Hour 1
  0,                                      !- Minute 1
  25.5555555555556;                       !- Value Until Time 1

OS:ThermostatSetpoint:DualSetpoint,
  {abc7a759-9b81-4572-825e-63935570d495}, !- Handle
  conditioned space temperature setpoint, !- Name
  {2204144d-de56-4cee-8b6c-85bd325401dd}, !- Heating Setpoint Temperature Schedule Name
  {2a5fc4f0-3458-41be-88e3-23f16232257c}, !- Cooling Setpoint Temperature Schedule Name
  0;                                      !- Temperature Difference Between Cutout And Setpoint {deltaC}

OS:ScheduleTypeLimits,
  {ac5fd4ab-3c24-4988-aca3-bfeb543ff16e}, !- Handle
  Temperature,                            !- Name
  ,                                       !- Lower Limit Value
  ,                                       !- Upper Limit Value
  Continuous,                             !- Numeric Type
  Temperature;                            !- Unit Type

OS:Surface,
  {a253dd3a-d125-4f53-b810-4f72112129f7}, !- Handle
  Roof1,                                  !- Name
  RoofCeiling,                            !- Surface Type
  {6289cee0-c9fe-406d-a919-260fa89a81b6}, !- Construction Name
  {4c65da9f-aa85-42df-81fb-314138e79cca}, !- Space Name
  Outdoors,                               !- Outside Boundary Condition
  ,                                       !- Outside Boundary Condition Object
  SunExposed,                             !- Sun Exposure
  WindExposed,                            !- Wind Exposure
  ,                                       !- View Factor to Ground
  ,                                       !- Number of Vertices
  -26.9347048849634, 58.0557891618865, 2.4384, !- X,Y,Z Vertex 1 {m}
  -26.9347048849634, 46.7895631136661, 8.0715130241102, !- X,Y,Z Vertex 2 {m}
  -14.3386812381136, 46.7895631136661, 8.0715130241102, !- X,Y,Z Vertex 3 {m}
  -14.3386812381136, 58.0557891618865, 2.4384; !- X,Y,Z Vertex 4 {m}

OS:AdditionalProperties,
  {c840775f-6f08-4932-a0e8-013eb7d557d0}, !- Handle
  {a253dd3a-d125-4f53-b810-4f72112129f7}, !- Object Name
  Length,                                 !- Feature Name 1
  Double,                                 !- Feature Data Type 1
  41.325536899113608,                     !- Feature Value 1
  Width,                                  !- Feature Name 2
  Double,                                 !- Feature Data Type 2
  41.325536899113601,                     !- Feature Value 2
  Azimuth,                                !- Feature Name 3
  Integer,                                !- Feature Data Type 3
  0,                                      !- Feature Value 3
  Tilt,                                   !- Feature Name 4
  Double,                                 !- Feature Data Type 4
  0.5,                                    !- Feature Value 4
  SurfaceType,                            !- Feature Name 5
  String,                                 !- Feature Data Type 5
  Roof;                                   !- Feature Value 5

OS:ThermalZone,
  {1bb34d4c-ded5-448c-9690-ff6a6ce3feff}, !- Handle
  attic - vented,                         !- Name
  1,                                      !- Multiplier
  ,                                       !- Ceiling Height {m}
  356.389957095237,                       !- Volume {m3}
  ,                                       !- Floor Area {m2}
  ,                                       !- Zone Inside Convection Algorithm
  ,                                       !- Zone Outside Convection Algorithm
  ,                                       !- Zone Conditioning Equipment List Name
  {b8f54058-6911-4a16-b54d-aef7caf1ae91}, !- Zone Air Inlet Port List
  {0dfe1dc8-7b0a-4740-908b-ed8a9cd2ee62}, !- Zone Air Exhaust Port List
  {084728e7-1b23-4bf5-a966-8bb539fdbad6}, !- Zone Air Node Name
  {0a045693-c688-4674-9e1d-f9e9bf33f752}, !- Zone Return Air Port List
  ,                                       !- Primary Daylighting Control Name
  ,                                       !- Fraction of Zone Controlled by Primary Daylighting Control
  ,                                       !- Secondary Daylighting Control Name
  ,                                       !- Fraction of Zone Controlled by Secondary Daylighting Control
  ,                                       !- Illuminance Map Name
  ,                                       !- Group Rendering Name
  ,                                       !- Thermostat Name
  No;                                     !- Use Ideal Air Loads

OS:Node,
  {ddc8c842-26d2-45ea-bb1f-0f99af235bc0}, !- Handle
  Node 2,                                 !- Name
  {084728e7-1b23-4bf5-a966-8bb539fdbad6}, !- Inlet Port
  ;                                       !- Outlet Port

OS:Connection,
  {084728e7-1b23-4bf5-a966-8bb539fdbad6}, !- Handle
  {1bb34d4c-ded5-448c-9690-ff6a6ce3feff}, !- Source Object
  11,                                     !- Outlet Port
  {ddc8c842-26d2-45ea-bb1f-0f99af235bc0}, !- Target Object
  2;                                      !- Inlet Port

OS:PortList,
  {b8f54058-6911-4a16-b54d-aef7caf1ae91}, !- Handle
  {1bb34d4c-ded5-448c-9690-ff6a6ce3feff}; !- HVAC Component

OS:PortList,
  {0dfe1dc8-7b0a-4740-908b-ed8a9cd2ee62}, !- Handle
  {1bb34d4c-ded5-448c-9690-ff6a6ce3feff}; !- HVAC Component

OS:PortList,
  {0a045693-c688-4674-9e1d-f9e9bf33f752}, !- Handle
  {1bb34d4c-ded5-448c-9690-ff6a6ce3feff}; !- HVAC Component

OS:Sizing:Zone,
  {5cd46098-c5b1-4137-bed5-3f9737d3006f}, !- Handle
  {1bb34d4c-ded5-448c-9690-ff6a6ce3feff}, !- Zone or ZoneList Name
  SupplyAirTemperature,                   !- Zone Cooling Design Supply Air Temperature Input Method
  14,                                     !- Zone Cooling Design Supply Air Temperature {C}
  11.11,                                  !- Zone Cooling Design Supply Air Temperature Difference {deltaC}
  SupplyAirTemperature,                   !- Zone Heating Design Supply Air Temperature Input Method
  40,                                     !- Zone Heating Design Supply Air Temperature {C}
  11.11,                                  !- Zone Heating Design Supply Air Temperature Difference {deltaC}
  0.0085,                                 !- Zone Cooling Design Supply Air Humidity Ratio {kg-H2O/kg-air}
  0.008,                                  !- Zone Heating Design Supply Air Humidity Ratio {kg-H2O/kg-air}
  ,                                       !- Zone Heating Sizing Factor
  ,                                       !- Zone Cooling Sizing Factor
  DesignDay,                              !- Cooling Design Air Flow Method
  ,                                       !- Cooling Design Air Flow Rate {m3/s}
  ,                                       !- Cooling Minimum Air Flow per Zone Floor Area {m3/s-m2}
  ,                                       !- Cooling Minimum Air Flow {m3/s}
  ,                                       !- Cooling Minimum Air Flow Fraction
  DesignDay,                              !- Heating Design Air Flow Method
  ,                                       !- Heating Design Air Flow Rate {m3/s}
  ,                                       !- Heating Maximum Air Flow per Zone Floor Area {m3/s-m2}
  ,                                       !- Heating Maximum Air Flow {m3/s}
  ,                                       !- Heating Maximum Air Flow Fraction
  No,                                     !- Account for Dedicated Outdoor Air System
  NeutralSupplyAir,                       !- Dedicated Outdoor Air System Control Strategy
  autosize,                               !- Dedicated Outdoor Air Low Setpoint Temperature for Design {C}
  autosize,                               !- Dedicated Outdoor Air High Setpoint Temperature for Design {C}
  Sensible Load Only No Latent Load,      !- Zone Load Sizing Method
  HumidityRatioDifference,                !- Zone Latent Cooling Design Supply Air Humidity Ratio Input Method
  ,                                       !- Zone Dehumidification Design Supply Air Humidity Ratio {kgWater/kgDryAir}
  0.005,                                  !- Zone Cooling Design Supply Air Humidity Ratio Difference {kgWater/kgDryAir}
  HumidityRatioDifference,                !- Zone Latent Heating Design Supply Air Humidity Ratio Input Method
  ,                                       !- Zone Humidification Design Supply Air Humidity Ratio {kgWater/kgDryAir}
  0.005,                                  !- Zone Humidification Design Supply Air Humidity Ratio Difference {kgWater/kgDryAir}
  ,                                       !- Zone Humidistat Dehumidification Set Point Schedule Name
  ,                                       !- Zone Humidistat Humidification Set Point Schedule Name
  ,                                       !- Design Zone Air Distribution Effectiveness in Cooling Mode
  ,                                       !- Design Zone Air Distribution Effectiveness in Heating Mode
  ,                                       !- Design Zone Secondary Recirculation Fraction {dimensionless}
  ,                                       !- Design Minimum Zone Ventilation Efficiency {dimensionless}
  Coincident;                             !- Sizing Option

OS:ZoneHVAC:EquipmentList,
  {9a73209e-6647-4e68-b384-9f6cd99719e0}, !- Handle
  Zone HVAC Equipment List 2,             !- Name
  {1bb34d4c-ded5-448c-9690-ff6a6ce3feff}; !- Thermal Zone

OS:AdditionalProperties,
  {918195d9-511d-475b-a8a3-3cc21d8ca0fe}, !- Handle
  {1bb34d4c-ded5-448c-9690-ff6a6ce3feff}, !- Object Name
  ObjectType,                             !- Feature Name 1
  String,                                 !- Feature Data Type 1
  attic - vented;                         !- Feature Value 1

OS:Space,
  {4c65da9f-aa85-42df-81fb-314138e79cca}, !- Handle
  attic - vented 1,                       !- Name
  ,                                       !- Space Type Name
  ,                                       !- Default Construction Set Name
  ,                                       !- Default Schedule Set Name
  ,                                       !- Direction of Relative North {deg}
  ,                                       !- X Origin {m}
  ,                                       !- Y Origin {m}
  ,                                       !- Z Origin {m}
  ,                                       !- Building Story Name
  {1bb34d4c-ded5-448c-9690-ff6a6ce3feff}, !- Thermal Zone Name
  ,                                       !- Part of Total Floor Area
  ,                                       !- Design Specification Outdoor Air Object Name
  ,                                       !- Building Unit Name
  356.389957095237;                       !- Volume {m3}

OS:Material,
  {514199e4-24a3-4603-b9d3-f9df43bf76dd}, !- Handle
  asphalt or fiberglass shingles,         !- Name
  Rough,                                  !- Roughness
  0.00635,                                !- Thickness {m}
  0.162714,                               !- Conductivity {W/m-K}
  1121.4,                                 !- Density {kg/m3}
  1465.45,                                !- Specific Heat {J/kg-K}
  0.9,                                    !- Thermal Absorptance
  0.85,                                   !- Solar Absorptance