
OS:Version,
  {04860e6c-3359-4667-a5ea-5b0a18129b06}, !- Handle
  3.10.0;                                 !- Version Identifier

OS:SimulationControl,
  {d59c2874-2754-41c6-8c31-b2f08664d06d}, !- Handle
  ,                                       !- Do Zone Sizing Calculation
  ,                                       !- Do System Sizing Calculation
  ,                                       !- Do Plant Sizing Calculation
  No;                                     !- Run Simulation for Sizing Periods

OS:Timestep,
  {7edaf350-2ebf-4170-9988-b51f47a21a89}, !- Handle
  1;                                      !- Number of Timesteps per Hour

OS:ShadowCalculation,
  {123b7fc9-b336-4429-9a23-8ea8ee9e260f}, !- Handle
  PolygonClipping,                        !- Shading Calculation Method
  ,                                       !- Shading Calculation Update Frequency Method
  20,                                     !- Shading Calculation Update Frequency
  200,                                    !- Maximum Figures in Shadow Overlap Calculations
  ,                                       !- Polygon Clipping Algorithm
  512,                                    !- Pixel Counting Resolution
  ,                                       !- Sky Diffuse Modeling Algorithm
  No,                                     !- Output External Shading Calculation Results
  No,                                     !- Disable Self-Shading Within Shading Zone Groups
  No;                                     !- Disable Self-Shading From Shading Zone Groups to Other Zones

OS:SurfaceConvectionAlgorithm:Outside,
  {46731eb0-9b49-4b51-91e3-6515cb1d39ef}, !- Handle
  DOE-2;                                  !- Algorithm

OS:SurfaceConvectionAlgorithm:Inside,
  {7b0678f9-93ef-434e-bc3f-e6f44454b94d}, !- Handle
  TARP;                                   !- Algorithm

OS:ZoneCapacitanceMultiplier:ResearchSpecial,
  {23746e83-f853-4aca-911e-26e0170fa6f8}, !- Handle
  7,                                      !- Temperature Capacity Multiplier
  15,                                     !- Humidity Capacity Multiplier
  ;                                       !- Carbon Dioxide Capacity Multiplier

OS:ConvergenceLimits,
  {1f8e42a1-9dab-4bbc-851d-788413924e64}, !- Handle
  0;                                      !- Minimum System Timestep {minutes}

OS:RunPeriod,
  {5c9869d3-ee60-4293-b1f4-3961df2014bd}, !- Handle
  Run Period 1,                           !- Name
  1,                                      !- Begin Month
  1,                                      !- Begin Day of Month
  12,                                     !- End Month
  31,                                     !- End Day of Month
  ,                                       !- Use Weather File Holidays and Special Days
  ,                                       !- Use Weather File Daylight Saving Period
  ,                                       !- Apply Weekend Holiday Rule
  ,                                       !- Use Weather File Rain Indicators
  ,                                       !- Use Weather File Snow Indicators
  ;                                       !- Number of Times Runperiod to be Repeated

OS:PerformancePrecisionTradeoffs,
  {905c1f22-83f4-48cb-8c4f-d7590fb046d3}, !- Handle
  ,                                       !- Use Coil Direct Solutions
  CarrollMRT;                             !- Zone Radiant Exchange Algorithm

OS:WeatherFile,
  {42b25fca-f42b-4110-8ae1-b1ee2e369fb7}, !- Handle
  Buffalo Niagara Intl Ap,                !- City
  NY,                                     !- State Province Region
  USA,                                    !- Country
  TMY3,                                   !- Data Source
  725280,                                 !- WMO Number
  42.93,                                  !- Latitude {deg}
  -78.73,                                 !- Longitude {deg}
  -5,                                     !- Time Zone {hr}
  215,                                    !- Elevation {m}
  /Users/nmoore/github/urbanopt-example-geojson-project/example_project/weather/USA_NY_Buffalo-Greater.Buffalo.Intl.AP.725280_TMY3.epw, !- Url
  6B50E0FF,                               !- Checksum
  ,                                       !- Start Date Actual Year
  Sunday;                                 !- Start Day of Week

OS:YearDescription,
  {ac65399a-81ed-422c-afac-656f04f33a93}, !- Handle
  2007,                                   !- Calendar Year
  ,                                       !- Day of Week for Start Day
  ;                                       !- Is Leap Year

OS:Site,
  {92b94248-ee7f-4e0e-bd46-938354bb16f7}, !- Handle
  Buffalo Niagara Intl Ap_NY,             !- Name
  42.93,                                  !- Latitude {deg}
  -78.73,                                 !- Longitude {deg}
  -5,                                     !- Time Zone {hr}
  215,                                    !- Elevation {m}
  Suburbs,                                !- Terrain
  Yes;                                    !- Keep Site Location Information

OS:RunPeriodControl:DaylightSavingTime,
  {0383c94d-6cfa-447f-b83b-5b4f0e23be39}, !- Handle
  Mar 12,                                 !- Start Date
  Nov 5;                                  !- End Date

OS:Site:GroundTemperature:Shallow,
  {d1d677af-7f0b-4eab-9c6d-c1d92f27c06d}, !- Handle
  4.30207395723828,                       !- January Surface Ground Temperature {C}
  2.29327249652502,                       !- February Surface Ground Temperature {C}
  2.13240047156047,                       !- March Surface Ground Temperature {C}
  3.08567940719286,                       !- April Surface Ground Temperature {C}
  6.91256312497526,                       !- May Surface Ground Temperature {C}
  10.7216195949507,                       !- June Surface Ground Temperature {C}
  14.0238679822574,                       !- July Surface Ground Temperature {C}
  16.1157611184724,                       !- August Surface Ground Temperature {C}
  16.2934789303462,                       !- September Surface Ground Temperature {C}
  14.5920754632847,                       !- October Surface Ground Temperature {C}
  11.374036348653,                        !- November Surface Ground Temperature {C}
  7.68182621661674;                       !- December Surface Ground Temperature {C}

OS:ThermalZone,
  {4c7ce4b3-efc2-41fa-a158-8e948c66b3c3}, !- Handle
  conditioned space,                      !- Name
  1,                                      !- Multiplier
  ,                                       !- Ceiling Height {m}
  692.06373070848,                        !- Volume {m3}
  ,                                       !- Floor Area {m2}
  ,                                       !- Zone Inside Convection Algorithm
  ,                                       !- Zone Outside Convection Algorithm
  ,                                       !- Zone Conditioning Equipment List Name
  {5a982404-d309-4372-b3dd-ca2df3c03370}, !- Zone Air Inlet Port List
  {7d00ad44-7d75-48c0-b790-1a4e419b2971}, !- Zone Air Exhaust Port List
  {ba8cfa6f-2b09-4cf4-85de-1ba617eaa7b4}, !- Zone Air Node Name
  {f718f6c9-d9dc-406c-9a10-39e906c88f28}, !- Zone Return Air Port List
  ,                                       !- Primary Daylighting Control Name
  ,                                       !- Fraction of Zone Controlled by Primary Daylighting Control
  ,                                       !- Secondary Daylighting Control Name
  ,                                       !- Fraction of Zone Controlled by Secondary Daylighting Control
  ,                                       !- Illuminance Map Name
  ,                                       !- Group Rendering Name
  {28e3b16e-ecfe-4f30-99cc-8b38e85f86dc}, !- Thermostat Name
  No;                                     !- Use Ideal Air Loads

OS:Node,
  {89c4c68c-e16a-4034-bd39-6d636a86e932}, !- Handle
  Node 1,                                 !- Name
  {ba8cfa6f-2b09-4cf4-85de-1ba617eaa7b4}, !- Inlet Port
  ;                                       !- Outlet Port

OS:Connection,
  {ba8cfa6f-2b09-4cf4-85de-1ba617eaa7b4}, !- Handle
  {4c7ce4b3-efc2-41fa-a158-8e948c66b3c3}, !- Source Object
  11,                                     !- Outlet Port
  {89c4c68c-e16a-4034-bd39-6d636a86e932}, !- Target Object
  2;                                      !- Inlet Port

OS:PortList,
  {5a982404-d309-4372-b3dd-ca2df3c03370}, !- Handle
  {4c7ce4b3-efc2-41fa-a158-8e948c66b3c3}, !- HVAC Component
  {5cf28e53-d4ce-4652-b606-fcc9357569f3}; !- Port 1

OS:PortList,
  {7d00ad44-7d75-48c0-b790-1a4e419b2971}, !- Handle
  {4c7ce4b3-efc2-41fa-a158-8e948c66b3c3}; !- HVAC Component

OS:PortList,
  {f718f6c9-d9dc-406c-9a10-39e906c88f28}, !- Handle
  {4c7ce4b3-efc2-41fa-a158-8e948c66b3c3}, !- HVAC Component
  {c7e338bc-d436-4e88-9657-81bf1595dcfb}; !- Port 1

OS:Sizing:Zone,
  {68e0c36b-5e4f-4c43-a71a-a8eb0a598c55}, !- Handle
  {4c7ce4b3-efc2-41fa-a158-8e948c66b3c3}, !- Zone or ZoneList Name
  SupplyAirTemperature,                   !- Zone Cooling Design Supply Air Temperature Input Method
  14,                                     !- Zone Cooling Design Supply Air Temperature {C}
  11.11,                                  !- Zone Cooling Design Supply Air Temperature Difference {deltaC}
  SupplyAirTemperature,                   !- Zone Heating Design Supply Air Temperature Input Method
  40,                                     !- Zone Heating Design Supply Air Temperature {C}
  11.11,                                  !- Zone Heating Design Supply Air Temperature Difference {deltaC}
  0.0085,                                 !- Zone Cooling Design Supply Air Humidity Ratio {kg-H2O/kg-air}
  0.008,                                  !- Zone Heating Design Supply Air Humidity Ratio {kg-H2O/kg-air}
  ,                                       !- Zone Heating Sizing Factor
  ,                                       !- Zone Cooling Sizing Factor
  DesignDay,                              !- Cooling Design Air Flow Method
  ,                                       !- Cooling Design Air Flow Rate {m3/s}
  ,                                       !- Cooling Minimum Air Flow per Zone Floor Area {m3/s-m2}
  ,                                       !- Cooling Minimum Air Flow {m3/s}
  ,                                       !- Cooling Minimum Air Flow Fraction
  DesignDay,                              !- Heating Design Air Flow Method
  ,                                       !- Heating Design Air Flow Rate {m3/s}
  ,                                       !- Heating Maximum Air Flow per Zone Floor Area {m3/s-m2}
  ,                                       !- Heating Maximum Air Flow {m3/s}
  ,                                       !- Heating Maximum Air Flow Fraction
  No,                                     !- Account for Dedicated Outdoor Air System
  NeutralSupplyAir,                       !- Dedicated Outdoor Air System Control Strategy
  autosize,                               !- Dedicated Outdoor Air Low Setpoint Temperature for Design {C}
  autosize,                               !- Dedicated Outdoor Air High Setpoint Temperature for Design {C}
  Sensible Load Only No Latent Load,      !- Zone Load Sizing Method
  HumidityRatioDifference,                !- Zone Latent Cooling Design Supply Air Humidity Ratio Input Method
  ,                                       !- Zone Dehumidification Design Supply Air Humidity Ratio {kgWater/kgDryAir}
  0.005,                                  !- Zone Cooling Design Supply Air Humidity Ratio Difference {kgWater/kgDryAir}
  HumidityRatioDifference,                !- Zone Latent Heating Design Supply Air Humidity Ratio Input Method
  ,                                       !- Zone Humidification Design Supply Air Humidity Ratio {kgWater/kgDryAir}
  0.005,                                  !- Zone Humidification Design Supply Air Humidity Ratio Difference {kgWater/kgDryAir}
  ,                                       !- Zone Humidistat Dehumidification Set Point Schedule Name
  ,                                       !- Zone Humidistat Humidification Set Point Schedule Name
  ,                                       !- Design Zone Air Distribution Effectiveness in Cooling Mode
  ,                                       !- Design Zone Air Distribution Effectiveness in Heating Mode
  ,                                       !- Design Zone Secondary Recirculation Fraction {dimensionless}
  ,                                       !- Design Minimum Zone Ventilation Efficiency {dimensionless}
  Coincident;                             !- Sizing Option

OS:ZoneHVAC:EquipmentList,
  {c4c159a3-f226-45c6-b4b0-5a49a7236179}, !- Handle
  Zone HVAC Equipment List 1,             !- Name
  {4c7ce4b3-efc2-41fa-a158-8e948c66b3c3}, !- Thermal Zone
  ,                                       !- Load Distribution Scheme
  {96dbd6eb-cb5b-4e69-ae26-d9b55ef3943c}, !- Zone Equipment 1
  1,                                      !- Zone Equipment Cooling Sequence 1
  1,                                      !- Zone Equipment Heating or No-Load Sequence 1
  {509712a2-ca85-451d-908a-4003858abc00}, !- Zone Equipment Sequential Cooling Fraction Schedule Name 1
  {e055d803-bda9-46e8-a08a-eeef5a793191}, !- Zone Equipment Sequential Heating Fraction Schedule Name 1
  {080c8fc1-e241-45ca-aa18-f6fc079f2aa9}, !- Zone Equipment 2
  2,                                      !- Zone Equipment Cooling Sequence 2
  2,                                      !- Zone Equipment Heating or No-Load Sequence 2
  {f50f22d0-4a82-4d5c-87f6-f2076151bc66}, !- Zone Equipment Sequential Cooling Fraction Schedule Name 2
  {b760824e-7a15-4013-b0b7-30dcf0cbaa38}; !- Zone Equipment Sequential Heating Fraction Schedule Name 2

OS:AdditionalProperties,
  {fe65c896-bf0b-4b69-9ad1-f5cac42b73d9}, !- Handle
  {4c7ce4b3-efc2-41fa-a158-8e948c66b3c3}, !- Object Name
  ObjectType,                             !- Feature Name 1
  String,                                 !- Feature Data Type 1
  conditioned space;                      !- Feature Value 1

OS:Space,
  {b7295a1b-4076-476c-8e6a-cf5288f4c09a}, !- Handle
  conditioned space 1,                    !- Name
  ,                                       !- Space Type Name
  ,                                       !- Default Construction Set Name
  ,                                       !- Default Schedule Set Name
  ,                                       !- Direction of Relative North {deg}
  ,                                       !- X Origin {m}
  ,                                       !- Y Origin {m}
  ,                                       !- Z Origin {m}
  ,                                       !- Building Story Name
  {4c7ce4b3-efc2-41fa-a158-8e948c66b3c3}, !- Thermal Zone Name
  ,                                       !- Part of Total Floor Area
  ,                                       !- Design Specification Outdoor Air Object Name
  ,                                       !- Building Unit Name
  692.06373070848;                        !- Volume {m3}

OS:Schedule:Ruleset,
  {4d340e6d-cac0-48fc-a7ea-b6b6908354a5}, !- Handle
  heating setpoint,                       !- Name
  {4d2e245f-ac95-4db0-9adb-0ab0f8c8363a}, !- Schedule Type Limits Name
  {cfabb8d3-a450-44ec-9e14-2d98960a3625}; !- Default Day Schedule Name

OS:Schedule:Day,
  {cfabb8d3-a450-44ec-9e14-2d98960a3625}, !- Handle
  heating setpoint default day,           !- Name
  {4d2e245f-ac95-4db0-9adb-0ab0f8c8363a}, !- Schedule Type Limits Name
  ,                                       !- Interpolate to Timestep
  24,                                     !- Hour 1
  0,                                      !- Minute 1
  0;                                      !- Value Until Time 1

OS:Schedule:Rule,
  {935d375e-e90c-4c79-b93d-ee7a99f388b3}, !- Handle
  heating setpoint allday rule,           !- Name
  {4d340e6d-cac0-48fc-a7ea-b6b6908354a5}, !- Schedule Ruleset Name
  0,                                      !- Rule Order
  {399bec0a-8069-49d4-9142-0f7789c3f0e0}, !- Day Schedule Name
  Yes,                                    !- Apply Sunday
  Yes,                                    !- Apply Monday
  Yes,                                    !- Apply Tuesday
  Yes,                                    !- Apply Wednesday
  Yes,                                    !- Apply Thursday
  Yes,                                    !- Apply Friday
  Yes,                                    !- Apply Saturday
  DateRange,                              !- Date Specification Type
  1,                                      !- Start Month
  1,                                      !- Start Day
  12,                                     !- End Month
  31;                                     !- End Day

OS:Schedule:Day,
  {399bec0a-8069-49d4-9142-0f7789c3f0e0}, !- Handle
  heating setpoint day,                   !- Name
  {4d2e245f-ac95-4db0-9adb-0ab0f8c8363a}, !- Schedule Type Limits Name
  ,                                       !- Interpolate to Timestep
  24,                                     !- Hour 1
  0,                                      !- Minute 1
  20;                                     !- Value Until Time 1

OS:Schedule:Ruleset,
  {17d06de2-3deb-40fa-af4c-1fe24a6c1a59}, !- Handle
  cooling setpoint,                       !- Name
  {4d2e245f-ac95-4db0-9adb-0ab0f8c8363a}, !- Schedule Type Limits Name
  {fa1fb377-4213-449d-befd-81e081399b25}; !- Default Day Schedule Name

OS:Schedule:Day,
  {fa1fb377-4213-449d-befd-81e081399b25}, !- Handle
  cooling setpoint default day,           !- Name
  {4d2e245f-ac95-4db0-9adb-0ab0f8c8363a}, !- Schedule Type Limits Name
  ,                                       !- Interpolate to Timestep
  24,                                     !- Hour 1
  0,                                      !- Minute 1
  0;                                      !- Value Until Time 1

OS:Schedule:Rule,
  {5aaca8ad-1ccd-4650-920e-e3bdec8ee2dd}, !- Handle
  cooling setpoint allday rule,           !- Name
  {17d06de2-3deb-40fa-af4c-1fe24a6c1a59}, !- Schedule Ruleset Name
  0,                                      !- Rule Order
  {2d96b6b1-ce02-44ee-b3bb-7924968431c6}, !- Day Schedule Name
  Yes,                                    !- Apply Sunday
  Yes,                                    !- Apply Monday
  Yes,                                    !- Apply Tuesday
  Yes,                                    !- Apply Wednesday
  Yes,                                    !- Apply Thursday
  Yes,                                    !- Apply Friday
  Yes,                                    !- Apply Saturday
  DateRange,                              !- Date Specification Type
  1,                                      !- Start Month
  1,                                      !- Start Day
  12,                                     !- End Month
  31;                                     !- End Day

OS:Schedule:Day,
  {2d96b6b1-ce02-44ee-b3bb-7924968431c6}, !- Handle
  cooling setpoint day,                   !- Name
  {4d2e245f-ac95-4db0-9adb-0ab0f8c8363a}, !- Schedule Type Limits Name
  ,                                       !- Interpolate to Timestep
  24,                                     !- Hour 1
  0,                                      !- Minute 1
  25.5555555555556;                       !- Value Until Time 1

OS:ThermostatSetpoint:DualSetpoint,
  {28e3b16e-ecfe-4f30-99cc-8b38e85f86dc}, !- Handle
  conditioned space temperature setpoint, !- Name
  {4d340e6d-cac0-48fc-a7ea-b6b6908354a5}, !- Heating Setpoint Temperature Schedule Name
  {17d06de2-3deb-40fa-af4c-1fe24a6c1a59}, !- Cooling Setpoint Temperature Schedule Name
  0;                                      !- Temperature Difference Between Cutout And Setpoint {deltaC}

OS:ScheduleTypeLimits,
  {4d2e245f-ac95-4db0-9adb-0ab0f8c8363a}, !- Handle
  Temperature,                            !- Name
  ,                                       !- Lower Limit Value
  ,                                       !- Upper Limit Value
  Continuous,                             !- Numeric Type
  Temperature;                            !- Unit Type

OS:Surface,
  {858b8bf1-4709-4a16-b722-bd160851498c}, !- Handle
  Roof1,                                  !- Name
  RoofCeiling,                            !- Surface Type
  {f59595af-e78c-438d-b704-d526ec3bd3a0}, !- Construction Name
  {b0b5beb5-c5d8-4173-8388-d760adfcb424}, !- Space Name
  Outdoors,                               !- Outside Boundary Condition
  ,                                       !- Outside Boundary Condition Object
  SunExposed,                             !- Sun Exposure
  WindExposed,                            !- Wind Exposure
  ,                                       !- View Factor to Ground
  ,                                       !- Number of Vertices
  -26.9347048849634, 58.0557891618865, 2.4384, !- X,Y,Z Vertex 1 {m}
  -26.9347048849634, 46.7895631136661, 8.0715130241102, !- X,Y,Z Vertex 2 {m}
  -14.3386812381136, 46.7895631136661, 8.0715130241102, !- X,Y,Z Vertex 3 {m}
  -14.3386812381136, 58.0557891618865, 2.4384; !- X,Y,Z Vertex 4 {m}

OS:AdditionalProperties,
  {64c73295-3c37-48e2-8475-9726dee04c3f}, !- Handle
  {858b8bf1-4709-4a16-b722-bd160851498c}, !- Object Name
  Length,                                 !- Feature Name 1
  Double,                                 !- Feature Data Type 1
  41.325536899113608,                     !- Feature Value 1
  Width,                                  !- Feature Name 2
  Double,                                 !- Feature Data Type 2
  41.325536899113601,                     !- Feature Value 2
  Azimuth,                                !- Feature Name 3
  Integer,                                !- Feature Data Type 3
  0,                                      !- Feature Value 3
  Tilt,                                   !- Feature Name 4
  Double,                                 !- Feature Data Type 4
  0.5,                                    !- Feature Value 4
  SurfaceType,                            !- Feature Name 5
  String,                                 !- Feature Data Type 5
  Roof;                                   !- Feature Value 5

OS:ThermalZone,
  {4d307f9b-296b-432f-823d-5afc2a817ed5}, !- Handle
  attic - vented,                         !- Name
  1,                                      !- Multiplier
  ,                                       !- Ceiling Height {m}
  356.390921899745,                       !- Volume {m3}
  ,                                       !- Floor Area {m2}
  ,                                       !- Zone Inside Convection Algorithm
  ,                                       !- Zone Outside Convection Algorithm
  ,                                       !- Zone Conditioning Equipment List Name
  {71d41f8c-7e20-4325-bd5c-7f66fa20bb30}, !- Zone Air Inlet Port List
  {0e0136d7-3041-4a39-94e9-896870a3a8e4}, !- Zone Air Exhaust Port List
  {e2e6fd9c-643d-48ed-9db4-4cee678ccf23}, !- Zone Air Node Name
  {9f9770eb-b7c4-4dfe-8198-7e6bbbb86638}, !- Zone Return Air Port List
  ,                                       !- Primary Daylighting Control Name
  ,                                       !- Fraction of Zone Controlled by Primary Daylighting Control
  ,                                       !- Secondary Daylighting Control Name
  ,                                       !- Fraction of Zone Controlled by Secondary Daylighting Control
  ,                                       !- Illuminance Map Name
  ,                                       !- Group Rendering Name
  ,                                       !- Thermostat Name
  No;                                     !- Use Ideal Air Loads

OS:Node,
  {23566b85-bc94-4f00-b010-79f47dc82f25}, !- Handle
  Node 2,                                 !- Name
  {e2e6fd9c-643d-48ed-9db4-4cee678ccf23}, !- Inlet Port
  ;                                       !- Outlet Port

OS:Connection,
  {e2e6fd9c-643d-48ed-9db4-4cee678ccf23}, !- Handle
  {4d307f9b-296b-432f-823d-5afc2a817ed5}, !- Source Object
  11,                                     !- Outlet Port
  {23566b85-bc94-4f00-b010-79f47dc82f25}, !- Target Object
  2;                                      !- Inlet Port

OS:PortList,
  {71d41f8c-7e20-4325-bd5c-7f66fa20bb30}, !- Handle
  {4d307f9b-296b-432f-823d-5afc2a817ed5}; !- HVAC Component

OS:PortList,
  {0e0136d7-3041-4a39-94e9-896870a3a8e4}, !- Handle
  {4d307f9b-296b-432f-823d-5afc2a817ed5}; !- HVAC Component

OS:PortList,
  {9f9770eb-b7c4-4dfe-8198-7e6bbbb86638}, !- Handle
  {4d307f9b-296b-432f-823d-5afc2a817ed5}; !- HVAC Component

OS:Sizing:Zone,
  {e3200cc3-3be6-440c-a5f7-97d6871e1019}, !- Handle
  {4d307f9b-296b-432f-823d-5afc2a817ed5}, !- Zone or ZoneList Name
  SupplyAirTemperature,                   !- Zone Cooling Design Supply Air Temperature Input Method
  14,                                     !- Zone Cooling Design Supply Air Temperature {C}
  11.11,                                  !- Zone Cooling Design Supply Air Temperature Difference {deltaC}
  SupplyAirTemperature,                   !- Zone Heating Design Supply Air Temperature Input Method
  40,                                     !- Zone Heating Design Supply Air Temperature {C}
  11.11,                                  !- Zone Heating Design Supply Air Temperature Difference {deltaC}
  0.0085,                                 !- Zone Cooling Design Supply Air Humidity Ratio {kg-H2O/kg-air}
  0.008,                                  !- Zone Heating Design Supply Air Humidity Ratio {kg-H2O/kg-air}
  ,                                       !- Zone Heating Sizing Factor
  ,                                       !- Zone Cooling Sizing Factor
  DesignDay,                              !- Cooling Design Air Flow Method
  ,                                       !- Cooling Design Air Flow Rate {m3/s}
  ,                                       !- Cooling Minimum Air Flow per Zone Floor Area {m3/s-m2}
  ,                                       !- Cooling Minimum Air Flow {m3/s}
  ,                                       !- Cooling Minimum Air Flow Fraction
  DesignDay,                              !- Heating Design Air Flow Method
  ,                                       !- Heating Design Air Flow Rate {m3/s}
  ,                                       !- Heating Maximum Air Flow per Zone Floor Area {m3/s-m2}
  ,                                       !- Heating Maximum Air Flow {m3/s}
  ,                                       !- Heating Maximum Air Flow Fraction
  No,                                     !- Account for Dedicated Outdoor Air System
  NeutralSupplyAir,                       !- Dedicated Outdoor Air System Control Strategy
  autosize,                               !- Dedicated Outdoor Air Low Setpoint Temperature for Design {C}
  autosize,                               !- Dedicated Outdoor Air High Setpoint Temperature for Design {C}
  Sensible Load Only No Latent Load,      !- Zone Load Sizing Method
  HumidityRatioDifference,                !- Zone Latent Cooling Design Supply Air Humidity Ratio Input Method
  ,                                       !- Zone Dehumidification Design Supply Air Humidity Ratio {kgWater/kgDryAir}
  0.005,                                  !- Zone Cooling Design Supply Air Humidity Ratio Difference {kgWater/kgDryAir}
  HumidityRatioDifference,                !- Zone Latent Heating Design Supply Air Humidity Ratio Input Method
  ,                                       !- Zone Humidification Design Supply Air Humidity Ratio {kgWater/kgDryAir}
  0.005,                                  !- Zone Humidification Design Supply Air Humidity Ratio Difference {kgWater/kgDryAir}
  ,                                       !- Zone Humidistat Dehumidification Set Point Schedule Name
  ,                                       !- Zone Humidistat Humidification Set Point Schedule Name
  ,                                       !- Design Zone Air Distribution Effectiveness in Cooling Mode
  ,                                       !- Design Zone Air Distribution Effectiveness in Heating Mode
  ,                                       !- Design Zone Secondary Recirculation Fraction {dimensionless}
  ,                                       !- Design Minimum Zone Ventilation Efficiency {dimensionless}
  Coincident;                             !- Sizing Option

OS:ZoneHVAC:EquipmentList,
  {571a19aa-a85d-46e7-83e0-9202a05181b6}, !- Handle
  Zone HVAC Equipment List 2,             !- Name
  {4d307f9b-296b-432f-823d-5afc2a817ed5}; !- Thermal Zone

OS:AdditionalProperties,
  {c1d54685-4dcd-40b5-b502-b275a5e3aeb0}, !- Handle
  {4d307f9b-296b-432f-823d-5afc2a817ed5}, !- Object Name
  ObjectType,                             !- Feature Name 1
  String,                                 !- Feature Data Type 1
  attic - vented;                         !- Feature Value 1

OS:Space,
  {b0b5beb5-c5d8-4173-8388-d760adfcb424}, !- Handle
  attic - vented 1,                       !- Name
  ,                                       !- Space Type Name
  ,                                       !- Default Construction Set Name
  ,                                       !- Default Schedule Set Name
  ,                                       !- Direction of Relative North {deg}
  ,                                       !- X Origin {m}
  ,                                       !- Y Origin {m}
  ,                                       !- Z Origin {m}
  ,                                       !- Building Story Name
  {4d307f9b-296b-432f-823d-5afc2a817ed5}, !- Thermal Zone Name
  ,                                       !- Part of Total Floor Area
  ,                                       !- Design Specification Outdoor Air Object Name
  ,                                       !- Building Unit Name
  356.390921899745;                       !- Volume {m3}

OS:Material,
  {4f525e7e-dec4-4ffb-b7bf-9581d161e20e}, !- Handle
  asphalt or fiberglass shingles,         !- Name