
OS:Version,
  {3fecb594-65e8-4619-8f91-1258470c3249}, !- Handle
  3.9.0;                                  !- Version Identifier

OS:SimulationControl,
  {b61f6016-499a-4182-8f5c-83abe8926268}, !- Handle
  ,                                       !- Do Zone Sizing Calculation
  ,                                       !- Do System Sizing Calculation
  ,                                       !- Do Plant Sizing Calculation
  No;                                     !- Run Simulation for Sizing Periods

OS:Timestep,
  {a2dd2373-d992-4e77-99ad-6493d99b8839}, !- Handle
  1;                                      !- Number of Timesteps per Hour

OS:ShadowCalculation,
  {b787f61c-9e47-45f4-a647-2046814d7ae9}, !- Handle
  PolygonClipping,                        !- Shading Calculation Method
  ,                                       !- Shading Calculation Update Frequency Method
  20,                                     !- Shading Calculation Update Frequency
  200,                                    !- Maximum Figures in Shadow Overlap Calculations
  ,                                       !- Polygon Clipping Algorithm
  512,                                    !- Pixel Counting Resolution
  ,                                       !- Sky Diffuse Modeling Algorithm
  No,                                     !- Output External Shading Calculation Results
  No,                                     !- Disable Self-Shading Within Shading Zone Groups
  No;                                     !- Disable Self-Shading From Shading Zone Groups to Other Zones

OS:SurfaceConvectionAlgorithm:Outside,
  {0fb2a045-4810-4008-b79e-9b2f1415c568}, !- Handle
  DOE-2;                                  !- Algorithm

OS:SurfaceConvectionAlgorithm:Inside,
  {a422f41d-20bf-47c0-9aac-d75ba37dc7f9}, !- Handle
  TARP;                                   !- Algorithm

OS:ZoneCapacitanceMultiplier:ResearchSpecial,
  {fb193223-b53a-4359-9724-0c3686bd6c93}, !- Handle
  7,                                      !- Temperature Capacity Multiplier
  15,                                     !- Humidity Capacity Multiplier
  ;                                       !- Carbon Dioxide Capacity Multiplier

OS:ConvergenceLimits,
  {3a1d069e-9676-47f5-8814-97eae70a69d6}, !- Handle
  0;                                      !- Minimum System Timestep {minutes}

OS:RunPeriod,
  {e641b65c-c16e-4ea1-b9bf-6d26ff41cc7f}, !- Handle
  Run Period 1,                           !- Name
  1,                                      !- Begin Month
  1,                                      !- Begin Day of Month
  12,                                     !- End Month
  31,                                     !- End Day of Month
  ,                                       !- Use Weather File Holidays and Special Days
  ,                                       !- Use Weather File Daylight Saving Period
  ,                                       !- Apply Weekend Holiday Rule
  ,                                       !- Use Weather File Rain Indicators
  ,                                       !- Use Weather File Snow Indicators
  ;                                       !- Number of Times Runperiod to be Repeated

OS:PerformancePrecisionTradeoffs,
  {c6c9c2a0-df87-470f-bbe1-97f6a3731021}, !- Handle
  ,                                       !- Use Coil Direct Solutions
  CarrollMRT;                             !- Zone Radiant Exchange Algorithm

OS:WeatherFile,
  {deb501c1-1270-443a-a11d-309fbacd2825}, !- Handle
  Buffalo Niagara Intl Ap,                !- City
  NY,                                     !- State Province Region
  USA,                                    !- Country
  TMY3,                                   !- Data Source
  725280,                                 !- WMO Number
  42.93,                                  !- Latitude {deg}
  -78.73,                                 !- Longitude {deg}
  -5,                                     !- Time Zone {hr}
  215,                                    !- Elevation {m}
  /Users/nmoore/github/urbanopt-example-geojson-project/example_project/weather/USA_NY_Buffalo-Greater.Buffalo.Intl.AP.725280_TMY3.epw, !- Url
  6B50E0FF,                               !- Checksum
  ,                                       !- Start Date Actual Year
  Sunday;                                 !- Start Day of Week

OS:YearDescription,
  {3478b869-ccef-4912-a5d7-d69655442981}, !- Handle
  2007,                                   !- Calendar Year
  ,                                       !- Day of Week for Start Day
  ;                                       !- Is Leap Year

OS:Site,
  {98e4872b-0b0a-4c9c-a40d-04bf5580076c}, !- Handle
  Buffalo Niagara Intl Ap_NY,             !- Name
  42.93,                                  !- Latitude {deg}
  -78.73,                                 !- Longitude {deg}
  -5,                                     !- Time Zone {hr}
  215,                                    !- Elevation {m}
  Suburbs,                                !- Terrain
  Yes;                                    !- Keep Site Location Information

OS:RunPeriodControl:DaylightSavingTime,
  {372d9624-dd7f-4dce-bd51-c8abc9f4c6c3}, !- Handle
  Mar 12,                                 !- Start Date
  Nov 5;                                  !- End Date

OS:Site:GroundTemperature:Shallow,
  {748561bc-cbb5-48fc-8cce-c1cc3a594616}, !- Handle
  4.30207395723828,                       !- January Surface Ground Temperature {C}
  2.29327249652502,                       !- February Surface Ground Temperature {C}
  2.13240047156047,                       !- March Surface Ground Temperature {C}
  3.08567940719286,                       !- April Surface Ground Temperature {C}
  6.91256312497526,                       !- May Surface Ground Temperature {C}
  10.7216195949507,                       !- June Surface Ground Temperature {C}
  14.0238679822574,                       !- July Surface Ground Temperature {C}
  16.1157611184724,                       !- August Surface Ground Temperature {C}
  16.2934789303462,                       !- September Surface Ground Temperature {C}
  14.5920754632847,                       !- October Surface Ground Temperature {C}
  11.374036348653,                        !- November Surface Ground Temperature {C}
  7.68182621661674;                       !- December Surface Ground Temperature {C}

OS:ThermalZone,
  {cc0dcdf2-edec-4d4a-9165-d2f78f13e750}, !- Handle
  conditioned space,                      !- Name
  1,                                      !- Multiplier
  ,                                       !- Ceiling Height {m}
  692.06373070848,                        !- Volume {m3}
  ,                                       !- Floor Area {m2}
  ,                                       !- Zone Inside Convection Algorithm
  ,                                       !- Zone Outside Convection Algorithm
  ,                                       !- Zone Conditioning Equipment List Name
  {087bf091-1aac-4995-8529-d876a262c2fd}, !- Zone Air Inlet Port List
  {4cb43752-41d2-4a1e-9bde-cb2c22e3d43a}, !- Zone Air Exhaust Port List
  {c98a08a5-a4b2-4984-821e-159d4f5d967d}, !- Zone Air Node Name
  {e950a4c4-4e0f-42b7-a137-74c27b0fcfb2}, !- Zone Return Air Port List
  ,                                       !- Primary Daylighting Control Name
  ,                                       !- Fraction of Zone Controlled by Primary Daylighting Control
  ,                                       !- Secondary Daylighting Control Name
  ,                                       !- Fraction of Zone Controlled by Secondary Daylighting Control
  ,                                       !- Illuminance Map Name
  ,                                       !- Group Rendering Name
  {575b6a4f-55a4-416d-a68e-d72e4136418e}, !- Thermostat Name
  No;                                     !- Use Ideal Air Loads

OS:Node,
  {db045762-4771-4f81-877d-a161af9cd1cb}, !- Handle
  Node 1,                                 !- Name
  {c98a08a5-a4b2-4984-821e-159d4f5d967d}, !- Inlet Port
  ;                                       !- Outlet Port

OS:Connection,
  {c98a08a5-a4b2-4984-821e-159d4f5d967d}, !- Handle
  {cc0dcdf2-edec-4d4a-9165-d2f78f13e750}, !- Source Object
  11,                                     !- Outlet Port
  {db045762-4771-4f81-877d-a161af9cd1cb}, !- Target Object
  2;                                      !- Inlet Port

OS:PortList,
  {087bf091-1aac-4995-8529-d876a262c2fd}, !- Handle
  {cc0dcdf2-edec-4d4a-9165-d2f78f13e750}, !- HVAC Component
  {8dcffd47-6310-44c2-a86c-85066bbe167e}; !- Port 1

OS:PortList,
  {4cb43752-41d2-4a1e-9bde-cb2c22e3d43a}, !- Handle
  {cc0dcdf2-edec-4d4a-9165-d2f78f13e750}; !- HVAC Component

OS:PortList,
  {e950a4c4-4e0f-42b7-a137-74c27b0fcfb2}, !- Handle
  {cc0dcdf2-edec-4d4a-9165-d2f78f13e750}, !- HVAC Component
  {6664aa37-530b-457b-aa85-79f189560aff}; !- Port 1

OS:Sizing:Zone,
  {b68d80ac-2bef-47d9-adcb-74a1b33a2a21}, !- Handle
  {cc0dcdf2-edec-4d4a-9165-d2f78f13e750}, !- Zone or ZoneList Name
  SupplyAirTemperature,                   !- Zone Cooling Design Supply Air Temperature Input Method
  14,                                     !- Zone Cooling Design Supply Air Temperature {C}
  11.11,                                  !- Zone Cooling Design Supply Air Temperature Difference {deltaC}
  SupplyAirTemperature,                   !- Zone Heating Design Supply Air Temperature Input Method
  40,                                     !- Zone Heating Design Supply Air Temperature {C}
  11.11,                                  !- Zone Heating Design Supply Air Temperature Difference {deltaC}
  0.0085,                                 !- Zone Cooling Design Supply Air Humidity Ratio {kg-H2O/kg-air}
  0.008,                                  !- Zone Heating Design Supply Air Humidity Ratio {kg-H2O/kg-air}
  ,                                       !- Zone Heating Sizing Factor
  ,                                       !- Zone Cooling Sizing Factor
  DesignDay,                              !- Cooling Design Air Flow Method
  ,                                       !- Cooling Design Air Flow Rate {m3/s}
  ,                                       !- Cooling Minimum Air Flow per Zone Floor Area {m3/s-m2}
  ,                                       !- Cooling Minimum Air Flow {m3/s}
  ,                                       !- Cooling Minimum Air Flow Fraction
  DesignDay,                              !- Heating Design Air Flow Method
  ,                                       !- Heating Design Air Flow Rate {m3/s}
  ,                                       !- Heating Maximum Air Flow per Zone Floor Area {m3/s-m2}
  ,                                       !- Heating Maximum Air Flow {m3/s}
  ,                                       !- Heating Maximum Air Flow Fraction
  No,                                     !- Account for Dedicated Outdoor Air System
  NeutralSupplyAir,                       !- Dedicated Outdoor Air System Control Strategy
  autosize,                               !- Dedicated Outdoor Air Low Setpoint Temperature for Design {C}
  autosize,                               !- Dedicated Outdoor Air High Setpoint Temperature for Design {C}
  Sensible Load Only No Latent Load,      !- Zone Load Sizing Method
  HumidityRatioDifference,                !- Zone Latent Cooling Design Supply Air Humidity Ratio Input Method
  ,                                       !- Zone Dehumidification Design Supply Air Humidity Ratio {kgWater/kgDryAir}
  0.005,                                  !- Zone Cooling Design Supply Air Humidity Ratio Difference {kgWater/kgDryAir}
  HumidityRatioDifference,                !- Zone Latent Heating Design Supply Air Humidity Ratio Input Method
  ,                                       !- Zone Humidification Design Supply Air Humidity Ratio {kgWater/kgDryAir}
  0.005,                                  !- Zone Humidification Design Supply Air Humidity Ratio Difference {kgWater/kgDryAir}
  ,                                       !- Zone Humidistat Dehumidification Set Point Schedule Name
  ,                                       !- Zone Humidistat Humidification Set Point Schedule Name
  ,                                       !- Design Zone Air Distribution Effectiveness in Cooling Mode
  ,                                       !- Design Zone Air Distribution Effectiveness in Heating Mode
  ,                                       !- Design Zone Secondary Recirculation Fraction {dimensionless}
  ,                                       !- Design Minimum Zone Ventilation Efficiency {dimensionless}
  Coincident;                             !- Sizing Option

OS:ZoneHVAC:EquipmentList,
  {6f0f7053-79ac-48d0-9a84-30b7287602b5}, !- Handle
  Zone HVAC Equipment List 1,             !- Name
  {cc0dcdf2-edec-4d4a-9165-d2f78f13e750}, !- Thermal Zone
  ,                                       !- Load Distribution Scheme
  {d95dc0ed-f6c6-475f-b13f-0a85253d949b}, !- Zone Equipment 1
  1,                                      !- Zone Equipment Cooling Sequence 1
  1,                                      !- Zone Equipment Heating or No-Load Sequence 1
  {96012c29-4528-4f36-9f6f-e59484978a00}, !- Zone Equipment Sequential Cooling Fraction Schedule Name 1
  {66a546af-69c9-4098-8507-d12bf1cfb5a5}, !- Zone Equipment Sequential Heating Fraction Schedule Name 1
  {13e28f9e-4f45-4b89-9d29-deb9f9eb1b6a}, !- Zone Equipment 2
  2,                                      !- Zone Equipment Cooling Sequence 2
  2,                                      !- Zone Equipment Heating or No-Load Sequence 2
  {4f045da7-286d-485a-b9c6-07812af859b2}, !- Zone Equipment Sequential Cooling Fraction Schedule Name 2
  {e1e59967-3a6c-4246-ac86-2207d15f9cca}; !- Zone Equipment Sequential Heating Fraction Schedule Name 2

OS:AdditionalProperties,
  {5d0fa171-65a0-461a-8daa-efb239fe54ff}, !- Handle
  {cc0dcdf2-edec-4d4a-9165-d2f78f13e750}, !- Object Name
  ObjectType,                             !- Feature Name 1
  String,                                 !- Feature Data Type 1
  conditioned space;                      !- Feature Value 1

OS:Space,
  {ed4e29c2-ff61-4d27-9190-fc91946909b4}, !- Handle
  conditioned space 1,                    !- Name
  ,                                       !- Space Type Name
  ,                                       !- Default Construction Set Name
  ,                                       !- Default Schedule Set Name
  ,                                       !- Direction of Relative North {deg}
  ,                                       !- X Origin {m}
  ,                                       !- Y Origin {m}
  ,                                       !- Z Origin {m}
  ,                                       !- Building Story Name
  {cc0dcdf2-edec-4d4a-9165-d2f78f13e750}, !- Thermal Zone Name
  ,                                       !- Part of Total Floor Area
  ,                                       !- Design Specification Outdoor Air Object Name
  ,                                       !- Building Unit Name
  692.06373070848;                        !- Volume {m3}

OS:Schedule:Ruleset,
  {d1fafc71-7e0c-428d-97e4-88ae8bb3467f}, !- Handle
  heating setpoint,                       !- Name
  {846ee7aa-4937-4058-a12c-0019074d5ed5}, !- Schedule Type Limits Name
  {fe0d33d2-46ad-486c-a6ae-6ed0693d8b67}; !- Default Day Schedule Name

OS:Schedule:Day,
  {fe0d33d2-46ad-486c-a6ae-6ed0693d8b67}, !- Handle
  heating setpoint default day,           !- Name
  {846ee7aa-4937-4058-a12c-0019074d5ed5}, !- Schedule Type Limits Name
  ,                                       !- Interpolate to Timestep
  24,                                     !- Hour 1
  0,                                      !- Minute 1
  0;                                      !- Value Until Time 1

OS:Schedule:Rule,
  {cae5e589-15e9-4794-9667-0767d5c88c66}, !- Handle
  heating setpoint allday rule,           !- Name
  {d1fafc71-7e0c-428d-97e4-88ae8bb3467f}, !- Schedule Ruleset Name
  0,                                      !- Rule Order
  {8391eef4-9cc8-4b27-8eb5-7c0f3d5a8d2b}, !- Day Schedule Name
  Yes,                                    !- Apply Sunday
  Yes,                                    !- Apply Monday
  Yes,                                    !- Apply Tuesday
  Yes,                                    !- Apply Wednesday
  Yes,                                    !- Apply Thursday
  Yes,                                    !- Apply Friday
  Yes,                                    !- Apply Saturday
  DateRange,                              !- Date Specification Type
  1,                                      !- Start Month
  1,                                      !- Start Day
  12,                                     !- End Month
  31;                                     !- End Day

OS:Schedule:Day,
  {8391eef4-9cc8-4b27-8eb5-7c0f3d5a8d2b}, !- Handle
  heating setpoint day,                   !- Name
  {846ee7aa-4937-4058-a12c-0019074d5ed5}, !- Schedule Type Limits Name
  ,                                       !- Interpolate to Timestep
  24,                                     !- Hour 1
  0,                                      !- Minute 1
  20;                                     !- Value Until Time 1

OS:Schedule:Ruleset,
  {0e348000-507d-4a67-9a53-f8e0636df138}, !- Handle
  cooling setpoint,                       !- Name
  {846ee7aa-4937-4058-a12c-0019074d5ed5}, !- Schedule Type Limits Name
  {ce111029-c706-437e-a001-38d6ef34fad1}; !- Default Day Schedule Name

OS:Schedule:Day,
  {ce111029-c706-437e-a001-38d6ef34fad1}, !- Handle
  cooling setpoint default day,           !- Name
  {846ee7aa-4937-4058-a12c-0019074d5ed5}, !- Schedule Type Limits Name
  ,                                       !- Interpolate to Timestep
  24,                                     !- Hour 1
  0,                                      !- Minute 1
  0;                                      !- Value Until Time 1

OS:Schedule:Rule,
  {00d5e3a3-e727-4f00-bcf1-0fe93109f4e4}, !- Handle
  cooling setpoint allday rule,           !- Name
  {0e348000-507d-4a67-9a53-f8e0636df138}, !- Schedule Ruleset Name
  0,                                      !- Rule Order
  {0393908c-cc9b-4ff7-846d-4209270054ee}, !- Day Schedule Name
  Yes,                                    !- Apply Sunday
  Yes,                                    !- Apply Monday
  Yes,                                    !- Apply Tuesday
  Yes,                                    !- Apply Wednesday
  Yes,                                    !- Apply Thursday
  Yes,                                    !- Apply Friday
  Yes,                                    !- Apply Saturday
  DateRange,                              !- Date Specification Type
  1,                                      !- Start Month
  1,                                      !- Start Day
  12,                                     !- End Month
  31;                                     !- End Day

OS:Schedule:Day,
  {0393908c-cc9b-4ff7-846d-4209270054ee}, !- Handle
  cooling setpoint day,                   !- Name
  {846ee7aa-4937-4058-a12c-0019074d5ed5}, !- Schedule Type Limits Name
  ,                                       !- Interpolate to Timestep
  24,                                     !- Hour 1
  0,                                      !- Minute 1
  25.5555555555556;                       !- Value Until Time 1

OS:ThermostatSetpoint:DualSetpoint,
  {575b6a4f-55a4-416d-a68e-d72e4136418e}, !- Handle
  conditioned space temperature setpoint, !- Name
  {d1fafc71-7e0c-428d-97e4-88ae8bb3467f}, !- Heating Setpoint Temperature Schedule Name
  {0e348000-507d-4a67-9a53-f8e0636df138}, !- Cooling Setpoint Temperature Schedule Name
  0;                                      !- Temperature Difference Between Cutout And Setpoint {deltaC}

OS:ScheduleTypeLimits,
  {846ee7aa-4937-4058-a12c-0019074d5ed5}, !- Handle
  Temperature,                            !- Name
  ,                                       !- Lower Limit Value
  ,                                       !- Upper Limit Value
  Continuous,                             !- Numeric Type
  Temperature;                            !- Unit Type

OS:Surface,
  {5698bff4-f318-42ae-a0ba-af998e5b7133}, !- Handle
  Roof1,                                  !- Name
  RoofCeiling,                            !- Surface Type
  {626c15c9-6eba-4428-af0e-02e1580f2f52}, !- Construction Name
  {0fce611a-6a2c-4123-af55-cd2886ccbf54}, !- Space Name
  Outdoors,                               !- Outside Boundary Condition
  ,                                       !- Outside Boundary Condition Object
  SunExposed,                             !- Sun Exposure
  WindExposed,                            !- Wind Exposure
  ,                                       !- View Factor to Ground
  ,                                       !- Number of Vertices
  -26.9347048849634, 58.0557891618865, 2.4384, !- X,Y,Z Vertex 1 {m}
  -26.9347048849634, 46.7895631136661, 8.0715130241102, !- X,Y,Z Vertex 2 {m}
  -14.3386812381136, 46.7895631136661, 8.0715130241102, !- X,Y,Z Vertex 3 {m}
  -14.3386812381136, 58.0557891618865, 2.4384; !- X,Y,Z Vertex 4 {m}

OS:AdditionalProperties,
  {752dbf39-afdc-4b13-a276-038735edebbf}, !- Handle
  {5698bff4-f318-42ae-a0ba-af998e5b7133}, !- Object Name
  Length,                                 !- Feature Name 1
  Double,                                 !- Feature Data Type 1
  41.325536899113608,                     !- Feature Value 1
  Width,                                  !- Feature Name 2
  Double,                                 !- Feature Data Type 2
  41.325536899113601,                     !- Feature Value 2
  Azimuth,                                !- Feature Name 3
  Integer,                                !- Feature Data Type 3
  0,                                      !- Feature Value 3
  Tilt,                                   !- Feature Name 4
  Double,                                 !- Feature Data Type 4
  0.5,                                    !- Feature Value 4
  SurfaceType,                            !- Feature Name 5
  String,                                 !- Feature Data Type 5
  Roof;                                   !- Feature Value 5

OS:ThermalZone,
  {1c01df5c-e677-4d7e-ae84-2a59a788c419}, !- Handle
  attic - vented,                         !- Name
  1,                                      !- Multiplier
  ,                                       !- Ceiling Height {m}
  356.389957095237,                       !- Volume {m3}
  ,                                       !- Floor Area {m2}
  ,                                       !- Zone Inside Convection Algorithm
  ,                                       !- Zone Outside Convection Algorithm
  ,                                       !- Zone Conditioning Equipment List Name
  {91a72b27-9360-4ef0-ab5e-990ccfc809f8}, !- Zone Air Inlet Port List
  {a274e16a-d8eb-474d-afe2-89e331810469}, !- Zone Air Exhaust Port List
  {54d93f24-e873-4c27-90da-db2468bd8269}, !- Zone Air Node Name
  {fb0a49f0-dd48-41bb-b3f1-71423ae17561}, !- Zone Return Air Port List
  ,                                       !- Primary Daylighting Control Name
  ,                                       !- Fraction of Zone Controlled by Primary Daylighting Control
  ,                                       !- Secondary Daylighting Control Name
  ,                                       !- Fraction of Zone Controlled by Secondary Daylighting Control
  ,                                       !- Illuminance Map Name
  ,                                       !- Group Rendering Name
  ,                                       !- Thermostat Name
  No;                                     !- Use Ideal Air Loads

OS:Node,
  {78610b37-c655-4ecf-9f6e-64a0189ced24}, !- Handle
  Node 2,                                 !- Name
  {54d93f24-e873-4c27-90da-db2468bd8269}, !- Inlet Port
  ;                                       !- Outlet Port

OS:Connection,
  {54d93f24-e873-4c27-90da-db2468bd8269}, !- Handle
  {1c01df5c-e677-4d7e-ae84-2a59a788c419}, !- Source Object
  11,                                     !- Outlet Port
  {78610b37-c655-4ecf-9f6e-64a0189ced24}, !- Target Object
  2;                                      !- Inlet Port

OS:PortList,
  {91a72b27-9360-4ef0-ab5e-990ccfc809f8}, !- Handle
  {1c01df5c-e677-4d7e-ae84-2a59a788c419}; !- HVAC Component

OS:PortList,
  {a274e16a-d8eb-474d-afe2-89e331810469}, !- Handle
  {1c01df5c-e677-4d7e-ae84-2a59a788c419}; !- HVAC Component

OS:PortList,
  {fb0a49f0-dd48-41bb-b3f1-71423ae17561}, !- Handle
  {1c01df5c-e677-4d7e-ae84-2a59a788c419}; !- HVAC Component

OS:Sizing:Zone,
  {cc316e16-ae5c-495b-a91a-43d5daf7136d}, !- Handle
  {1c01df5c-e677-4d7e-ae84-2a59a788c419}, !- Zone or ZoneList Name
  SupplyAirTemperature,                   !- Zone Cooling Design Supply Air Temperature Input Method
  14,                                     !- Zone Cooling Design Supply Air Temperature {C}
  11.11,                                  !- Zone Cooling Design Supply Air Temperature Difference {deltaC}
  SupplyAirTemperature,                   !- Zone Heating Design Supply Air Temperature Input Method
  40,                                     !- Zone Heating Design Supply Air Temperature {C}
  11.11,                                  !- Zone Heating Design Supply Air Temperature Difference {deltaC}
  0.0085,                                 !- Zone Cooling Design Supply Air Humidity Ratio {kg-H2O/kg-air}
  0.008,                                  !- Zone Heating Design Supply Air Humidity Ratio {kg-H2O/kg-air}
  ,                                       !- Zone Heating Sizing Factor
  ,                                       !- Zone Cooling Sizing Factor
  DesignDay,                              !- Cooling Design Air Flow Method
  ,                                       !- Cooling Design Air Flow Rate {m3/s}
  ,                                       !- Cooling Minimum Air Flow per Zone Floor Area {m3/s-m2}
  ,                                       !- Cooling Minimum Air Flow {m3/s}
  ,                                       !- Cooling Minimum Air Flow Fraction
  DesignDay,                              !- Heating Design Air Flow Method
  ,                                       !- Heating Design Air Flow Rate {m3/s}
  ,                                       !- Heating Maximum Air Flow per Zone Floor Area {m3/s-m2}
  ,                                       !- Heating Maximum Air Flow {m3/s}
  ,                                       !- Heating Maximum Air Flow Fraction
  No,                                     !- Account for Dedicated Outdoor Air System
  NeutralSupplyAir,                       !- Dedicated Outdoor Air System Control Strategy
  autosize,                               !- Dedicated Outdoor Air Low Setpoint Temperature for Design {C}
  autosize,                               !- Dedicated Outdoor Air High Setpoint Temperature for Design {C}
  Sensible Load Only No Latent Load,      !- Zone Load Sizing Method
  HumidityRatioDifference,                !- Zone Latent Cooling Design Supply Air Humidity Ratio Input Method
  ,                                       !- Zone Dehumidification Design Supply Air Humidity Ratio {kgWater/kgDryAir}
  0.005,                                  !- Zone Cooling Design Supply Air Humidity Ratio Difference {kgWater/kgDryAir}
  HumidityRatioDifference,                !- Zone Latent Heating Design Supply Air Humidity Ratio Input Method
  ,                                       !- Zone Humidification Design Supply Air Humidity Ratio {kgWater/kgDryAir}
  0.005,                                  !- Zone Humidification Design Supply Air Humidity Ratio Difference {kgWater/kgDryAir}
  ,                                       !- Zone Humidistat Dehumidification Set Point Schedule Name
  ,                                       !- Zone Humidistat Humidification Set Point Schedule Name
  ,                                       !- Design Zone Air Distribution Effectiveness in Cooling Mode
  ,                                       !- Design Zone Air Distribution Effectiveness in Heating Mode
  ,                                       !- Design Zone Secondary Recirculation Fraction {dimensionless}
  ,                                       !- Design Minimum Zone Ventilation Efficiency {dimensionless}
  Coincident;                             !- Sizing Option

OS:ZoneHVAC:EquipmentList,
  {309fc358-c22d-4af4-983f-f84352bd107e}, !- Handle
  Zone HVAC Equipment List 2,             !- Name
  {1c01df5c-e677-4d7e-ae84-2a59a788c419}; !- Thermal Zone

OS:AdditionalProperties,
  {e8117bcc-4e40-48de-a611-634b75e669dd}, !- Handle
  {1c01df5c-e677-4d7e-ae84-2a59a788c419}, !- Object Name
  ObjectType,                             !- Feature Name 1
  String,                                 !- Feature Data Type 1
  attic - vented;                         !- Feature Value 1

OS:Space,
  {0fce611a-6a2c-4123-af55-cd2886ccbf54}, !- Handle
  attic - vented 1,                       !- Name
  ,                                       !- Space Type Name
  ,                                       !- Default Construction Set Name
  ,                                       !- Default Schedule Set Name
  ,                                       !- Direction of Relative North {deg}
  ,                                       !- X Origin {m}
  ,                                       !- Y Origin {m}
  ,                                       !- Z Origin {m}
  ,                                       !- Building Story Name
  {1c01df5c-e677-4d7e-ae84-2a59a788c419}, !- Thermal Zone Name
  ,                                       !- Part of Total Floor Area
  ,                                       !- Design Specification Outdoor Air Object Name
  ,                                       !- Building Unit Name
  356.389957095237;                       !- Volume {m3}

OS:Material,
  {915baaf4-391b-4488-9d40-5a495407b545}, !- Handle
  asphalt or fiberglass shingles,         !- Name