
OS:Version,
  {fc238066-f9d2-446b-83f1-e2dff8f1be61}, !- Handle
  3.10.0;                                 !- Version Identifier

OS:SimulationControl,
  {fc9b8cfa-f940-40e8-81c1-47e3d2cd47cd}, !- Handle
  ,                                       !- Do Zone Sizing Calculation
  ,                                       !- Do System Sizing Calculation
  ,                                       !- Do Plant Sizing Calculation
  No;                                     !- Run Simulation for Sizing Periods

OS:Timestep,
  {c76bdbc5-3acb-408e-9c0d-eb8ebd1e1218}, !- Handle
  1;                                      !- Number of Timesteps per Hour

OS:ShadowCalculation,
  {d2f970f2-eb09-4b9e-8bb2-3e48ef07fe1d}, !- Handle
  PolygonClipping,                        !- Shading Calculation Method
  ,                                       !- Shading Calculation Update Frequency Method
  20,                                     !- Shading Calculation Update Frequency
  200,                                    !- Maximum Figures in Shadow Overlap Calculations
  ,                                       !- Polygon Clipping Algorithm
  512,                                    !- Pixel Counting Resolution
  ,                                       !- Sky Diffuse Modeling Algorithm
  No,                                     !- Output External Shading Calculation Results
  No,                                     !- Disable Self-Shading Within Shading Zone Groups
  No;                                     !- Disable Self-Shading From Shading Zone Groups to Other Zones

OS:SurfaceConvectionAlgorithm:Outside,
  {2ffbbb05-d199-4ccf-afef-49f2fef57963}, !- Handle
  DOE-2;                                  !- Algorithm

OS:SurfaceConvectionAlgorithm:Inside,
  {3dd07b15-f208-4e5f-aa17-857c86366594}, !- Handle
  TARP;                                   !- Algorithm

OS:ZoneCapacitanceMultiplier:ResearchSpecial,
  {b04b10ff-50ba-4864-af3b-93436c263fa1}, !- Handle
  7,                                      !- Temperature Capacity Multiplier
  15,                                     !- Humidity Capacity Multiplier
  ;                                       !- Carbon Dioxide Capacity Multiplier

OS:ConvergenceLimits,
  {520cef50-01de-4c48-8cd1-b18233652759}, !- Handle
  0;                                      !- Minimum System Timestep {minutes}

OS:RunPeriod,
  {d796c5e1-03d6-404e-8a37-06d7667b385d}, !- Handle
  Run Period 1,                           !- Name
  1,                                      !- Begin Month
  1,                                      !- Begin Day of Month
  12,                                     !- End Month
  31,                                     !- End Day of Month
  ,                                       !- Use Weather File Holidays and Special Days
  ,                                       !- Use Weather File Daylight Saving Period
  ,                                       !- Apply Weekend Holiday Rule
  ,                                       !- Use Weather File Rain Indicators
  ,                                       !- Use Weather File Snow Indicators
  ;                                       !- Number of Times Runperiod to be Repeated

OS:PerformancePrecisionTradeoffs,
  {874c605e-dd63-43ac-b799-1cd4efa51279}, !- Handle
  ,                                       !- Use Coil Direct Solutions
  CarrollMRT;                             !- Zone Radiant Exchange Algorithm

OS:WeatherFile,
  {134ff568-f656-4197-8ef0-fa11b6f20bc8}, !- Handle
  Buffalo Niagara Intl Ap,                !- City
  NY,                                     !- State Province Region
  USA,                                    !- Country
  TMY3,                                   !- Data Source
  725280,                                 !- WMO Number
  42.93,                                  !- Latitude {deg}
  -78.73,                                 !- Longitude {deg}
  -5,                                     !- Time Zone {hr}
  215,                                    !- Elevation {m}
  /Users/nmoore/github/urbanopt-example-geojson-project/example_project/weather/USA_NY_Buffalo-Greater.Buffalo.Intl.AP.725280_TMY3.epw, !- Url
  6B50E0FF,                               !- Checksum
  ,                                       !- Start Date Actual Year
  Sunday;                                 !- Start Day of Week

OS:YearDescription,
  {8b0ac4ef-fd58-4b6d-826e-c412ce60bcc1}, !- Handle
  2007,                                   !- Calendar Year
  ,                                       !- Day of Week for Start Day
  ;                                       !- Is Leap Year

OS:Site,
  {ef006ddd-f714-45d5-aace-21158b073a35}, !- Handle
  Buffalo Niagara Intl Ap_NY,             !- Name
  42.93,                                  !- Latitude {deg}
  -78.73,                                 !- Longitude {deg}
  -5,                                     !- Time Zone {hr}
  215,                                    !- Elevation {m}
  Suburbs,                                !- Terrain
  Yes;                                    !- Keep Site Location Information

OS:RunPeriodControl:DaylightSavingTime,
  {27b16abf-b356-43ea-a8f1-ba5b760784c5}, !- Handle
  Mar 12,                                 !- Start Date
  Nov 5;                                  !- End Date

OS:Site:GroundTemperature:Shallow,
  {fc135855-ee7a-4472-a341-cd7be26823f2}, !- Handle
  4.30207395723828,                       !- January Surface Ground Temperature {C}
  2.29327249652502,                       !- February Surface Ground Temperature {C}
  2.13240047156047,                       !- March Surface Ground Temperature {C}
  3.08567940719286,                       !- April Surface Ground Temperature {C}
  6.91256312497526,                       !- May Surface Ground Temperature {C}
  10.7216195949507,                       !- June Surface Ground Temperature {C}
  14.0238679822574,                       !- July Surface Ground Temperature {C}
  16.1157611184724,                       !- August Surface Ground Temperature {C}
  16.2934789303462,                       !- September Surface Ground Temperature {C}
  14.5920754632847,                       !- October Surface Ground Temperature {C}
  11.374036348653,                        !- November Surface Ground Temperature {C}
  7.68182621661674;                       !- December Surface Ground Temperature {C}

OS:ThermalZone,
  {a8d34ed3-d825-49fb-bb5d-0ba15398d352}, !- Handle
  conditioned space,                      !- Name
  1,                                      !- Multiplier
  ,                                       !- Ceiling Height {m}
  1132.67386368,                          !- Volume {m3}
  ,                                       !- Floor Area {m2}
  ,                                       !- Zone Inside Convection Algorithm
  ,                                       !- Zone Outside Convection Algorithm
  ,                                       !- Zone Conditioning Equipment List Name
  {b0489bf0-0236-45b7-b138-b170940782b6}, !- Zone Air Inlet Port List
  {7c29f305-0a76-48c2-89a9-42192332c5d0}, !- Zone Air Exhaust Port List
  {29644689-f1dd-4951-986f-d3a9a225d3f8}, !- Zone Air Node Name
  {e25d9f55-1754-437f-82fa-6caef8cf8629}, !- Zone Return Air Port List
  ,                                       !- Primary Daylighting Control Name
  ,                                       !- Fraction of Zone Controlled by Primary Daylighting Control
  ,                                       !- Secondary Daylighting Control Name
  ,                                       !- Fraction of Zone Controlled by Secondary Daylighting Control
  ,                                       !- Illuminance Map Name
  ,                                       !- Group Rendering Name
  {0bef7b6e-d615-49e9-a67e-85450ad38654}, !- Thermostat Name
  No;                                     !- Use Ideal Air Loads

OS:Node,
  {5eaffe2a-f456-4423-9452-cff0c0738307}, !- Handle
  Node 1,                                 !- Name
  {29644689-f1dd-4951-986f-d3a9a225d3f8}, !- Inlet Port
  ;                                       !- Outlet Port

OS:Connection,
  {29644689-f1dd-4951-986f-d3a9a225d3f8}, !- Handle
  {a8d34ed3-d825-49fb-bb5d-0ba15398d352}, !- Source Object
  11,                                     !- Outlet Port
  {5eaffe2a-f456-4423-9452-cff0c0738307}, !- Target Object
  2;                                      !- Inlet Port

OS:PortList,
  {b0489bf0-0236-45b7-b138-b170940782b6}, !- Handle
  {a8d34ed3-d825-49fb-bb5d-0ba15398d352}, !- HVAC Component
  {a236d0eb-f59a-4a7d-a407-cf6c55841e49}; !- Port 1

OS:PortList,
  {7c29f305-0a76-48c2-89a9-42192332c5d0}, !- Handle
  {a8d34ed3-d825-49fb-bb5d-0ba15398d352}; !- HVAC Component

OS:PortList,
  {e25d9f55-1754-437f-82fa-6caef8cf8629}, !- Handle
  {a8d34ed3-d825-49fb-bb5d-0ba15398d352}, !- HVAC Component
  {e705cbc9-b990-4cf8-a9b8-10c0373558b0}; !- Port 1

OS:Sizing:Zone,
  {e15531bb-29c3-46c4-8460-b87536c8e8c3}, !- Handle
  {a8d34ed3-d825-49fb-bb5d-0ba15398d352}, !- Zone or ZoneList Name
  SupplyAirTemperature,                   !- Zone Cooling Design Supply Air Temperature Input Method
  14,                                     !- Zone Cooling Design Supply Air Temperature {C}
  11.11,                                  !- Zone Cooling Design Supply Air Temperature Difference {deltaC}
  SupplyAirTemperature,                   !- Zone Heating Design Supply Air Temperature Input Method
  40,                                     !- Zone Heating Design Supply Air Temperature {C}
  11.11,                                  !- Zone Heating Design Supply Air Temperature Difference {deltaC}
  0.0085,                                 !- Zone Cooling Design Supply Air Humidity Ratio {kg-H2O/kg-air}
  0.008,                                  !- Zone Heating Design Supply Air Humidity Ratio {kg-H2O/kg-air}
  ,                                       !- Zone Heating Sizing Factor
  ,                                       !- Zone Cooling Sizing Factor
  DesignDay,                              !- Cooling Design Air Flow Method
  ,                                       !- Cooling Design Air Flow Rate {m3/s}
  ,                                       !- Cooling Minimum Air Flow per Zone Floor Area {m3/s-m2}
  ,                                       !- Cooling Minimum Air Flow {m3/s}
  ,                                       !- Cooling Minimum Air Flow Fraction
  DesignDay,                              !- Heating Design Air Flow Method
  ,                                       !- Heating Design Air Flow Rate {m3/s}
  ,                                       !- Heating Maximum Air Flow per Zone Floor Area {m3/s-m2}
  ,                                       !- Heating Maximum Air Flow {m3/s}
  ,                                       !- Heating Maximum Air Flow Fraction
  No,                                     !- Account for Dedicated Outdoor Air System
  NeutralSupplyAir,                       !- Dedicated Outdoor Air System Control Strategy
  autosize,                               !- Dedicated Outdoor Air Low Setpoint Temperature for Design {C}
  autosize,                               !- Dedicated Outdoor Air High Setpoint Temperature for Design {C}
  Sensible Load Only No Latent Load,      !- Zone Load Sizing Method
  HumidityRatioDifference,                !- Zone Latent Cooling Design Supply Air Humidity Ratio Input Method
  ,                                       !- Zone Dehumidification Design Supply Air Humidity Ratio {kgWater/kgDryAir}
  0.005,                                  !- Zone Cooling Design Supply Air Humidity Ratio Difference {kgWater/kgDryAir}
  HumidityRatioDifference,                !- Zone Latent Heating Design Supply Air Humidity Ratio Input Method
  ,                                       !- Zone Humidification Design Supply Air Humidity Ratio {kgWater/kgDryAir}
  0.005,                                  !- Zone Humidification Design Supply Air Humidity Ratio Difference {kgWater/kgDryAir}
  ,                                       !- Zone Humidistat Dehumidification Set Point Schedule Name
  ,                                       !- Zone Humidistat Humidification Set Point Schedule Name
  ,                                       !- Design Zone Air Distribution Effectiveness in Cooling Mode
  ,                                       !- Design Zone Air Distribution Effectiveness in Heating Mode
  ,                                       !- Design Zone Secondary Recirculation Fraction {dimensionless}
  ,                                       !- Design Minimum Zone Ventilation Efficiency {dimensionless}
  Coincident;                             !- Sizing Option

OS:ZoneHVAC:EquipmentList,
  {022d5f01-4b6e-4f9b-83a6-bcb13853d43d}, !- Handle
  Zone HVAC Equipment List 1,             !- Name
  {a8d34ed3-d825-49fb-bb5d-0ba15398d352}, !- Thermal Zone
  ,                                       !- Load Distribution Scheme
  {137f849b-f265-466f-b464-3bec35c32cd7}, !- Zone Equipment 1
  1,                                      !- Zone Equipment Cooling Sequence 1
  1,                                      !- Zone Equipment Heating or No-Load Sequence 1
  {48a41be6-3813-41d4-b6b2-db266e285acd}, !- Zone Equipment Sequential Cooling Fraction Schedule Name 1
  {ad2c5380-f991-46fa-80e5-33f032e11e1d}; !- Zone Equipment Sequential Heating Fraction Schedule Name 1

OS:AdditionalProperties,
  {213b72ea-734a-4850-a6d1-75690077e273}, !- Handle
  {a8d34ed3-d825-49fb-bb5d-0ba15398d352}, !- Object Name
  ObjectType,                             !- Feature Name 1
  String,                                 !- Feature Data Type 1
  conditioned space;                      !- Feature Value 1

OS:Space,
  {ddc6ccfb-87a9-44a0-b867-85b754d062a4}, !- Handle
  conditioned space 1,                    !- Name
  ,                                       !- Space Type Name
  ,                                       !- Default Construction Set Name
  ,                                       !- Default Schedule Set Name
  ,                                       !- Direction of Relative North {deg}
  ,                                       !- X Origin {m}
  ,                                       !- Y Origin {m}
  ,                                       !- Z Origin {m}
  ,                                       !- Building Story Name
  {a8d34ed3-d825-49fb-bb5d-0ba15398d352}, !- Thermal Zone Name
  ,                                       !- Part of Total Floor Area
  ,                                       !- Design Specification Outdoor Air Object Name
  ,                                       !- Building Unit Name
  1132.67386368;                          !- Volume {m3}

OS:Schedule:Ruleset,
  {8e4052e1-bbed-4e19-a306-32fa1362c7f3}, !- Handle
  heating setpoint,                       !- Name
  {aff52091-b928-4308-8476-ac54b18aa11b}, !- Schedule Type Limits Name
  {6635d9b3-8d51-49c4-bfa7-79eed7ac9a28}; !- Default Day Schedule Name

OS:Schedule:Day,
  {6635d9b3-8d51-49c4-bfa7-79eed7ac9a28}, !- Handle
  heating setpoint default day,           !- Name
  {aff52091-b928-4308-8476-ac54b18aa11b}, !- Schedule Type Limits Name
  ,                                       !- Interpolate to Timestep
  24,                                     !- Hour 1
  0,                                      !- Minute 1
  0;                                      !- Value Until Time 1

OS:Schedule:Rule,
  {3b22de2e-9337-46ac-bbc6-ce0c28336a4e}, !- Handle
  heating setpoint allday rule,           !- Name
  {8e4052e1-bbed-4e19-a306-32fa1362c7f3}, !- Schedule Ruleset Name
  0,                                      !- Rule Order
  {aad356d3-bfa8-417e-8a32-fc098e73dccd}, !- Day Schedule Name
  Yes,                                    !- Apply Sunday
  Yes,                                    !- Apply Monday
  Yes,                                    !- Apply Tuesday
  Yes,                                    !- Apply Wednesday
  Yes,                                    !- Apply Thursday
  Yes,                                    !- Apply Friday
  Yes,                                    !- Apply Saturday
  DateRange,                              !- Date Specification Type
  1,                                      !- Start Month
  1,                                      !- Start Day
  12,                                     !- End Month
  31;                                     !- End Day

OS:Schedule:Day,
  {aad356d3-bfa8-417e-8a32-fc098e73dccd}, !- Handle
  heating setpoint day,                   !- Name
  {aff52091-b928-4308-8476-ac54b18aa11b}, !- Schedule Type Limits Name
  ,                                       !- Interpolate to Timestep
  24,                                     !- Hour 1
  0,                                      !- Minute 1
  22.2222222222222;                       !- Value Until Time 1

OS:Schedule:Ruleset,
  {0e418e1c-8d5c-4020-b101-6f1fa0252321}, !- Handle
  cooling setpoint,                       !- Name
  {aff52091-b928-4308-8476-ac54b18aa11b}, !- Schedule Type Limits Name
  {5853ea85-3863-4fbf-8da4-c3d6dac436ea}; !- Default Day Schedule Name

OS:Schedule:Day,
  {5853ea85-3863-4fbf-8da4-c3d6dac436ea}, !- Handle
  cooling setpoint default day,           !- Name
  {aff52091-b928-4308-8476-ac54b18aa11b}, !- Schedule Type Limits Name
  ,                                       !- Interpolate to Timestep
  24,                                     !- Hour 1
  0,                                      !- Minute 1
  0;                                      !- Value Until Time 1

OS:Schedule:Rule,
  {d3be2fbb-f620-43ea-bb40-2aa09599e6cf}, !- Handle
  cooling setpoint allday rule,           !- Name
  {0e418e1c-8d5c-4020-b101-6f1fa0252321}, !- Schedule Ruleset Name
  0,                                      !- Rule Order
  {d5ad5fef-9c63-4b35-b63b-e51c1d6ba57d}, !- Day Schedule Name
  Yes,                                    !- Apply Sunday
  Yes,                                    !- Apply Monday
  Yes,                                    !- Apply Tuesday
  Yes,                                    !- Apply Wednesday
  Yes,                                    !- Apply Thursday
  Yes,                                    !- Apply Friday
  Yes,                                    !- Apply Saturday
  DateRange,                              !- Date Specification Type
  1,                                      !- Start Month
  1,                                      !- Start Day
  12,                                     !- End Month
  31;                                     !- End Day

OS:Schedule:Day,
  {d5ad5fef-9c63-4b35-b63b-e51c1d6ba57d}, !- Handle
  cooling setpoint day,                   !- Name
  {aff52091-b928-4308-8476-ac54b18aa11b}, !- Schedule Type Limits Name
  ,                                       !- Interpolate to Timestep
  24,                                     !- Hour 1
  0,                                      !- Minute 1
  22.2222222222222;                       !- Value Until Time 1

OS:ThermostatSetpoint:DualSetpoint,
  {0bef7b6e-d615-49e9-a67e-85450ad38654}, !- Handle
  conditioned space temperature setpoint, !- Name
  {8e4052e1-bbed-4e19-a306-32fa1362c7f3}, !- Heating Setpoint Temperature Schedule Name
  {0e418e1c-8d5c-4020-b101-6f1fa0252321}, !- Cooling Setpoint Temperature Schedule Name
  0;                                      !- Temperature Difference Between Cutout And Setpoint {deltaC}

OS:ScheduleTypeLimits,
  {aff52091-b928-4308-8476-ac54b18aa11b}, !- Handle
  Temperature,                            !- Name
  ,                                       !- Lower Limit Value
  ,                                       !- Upper Limit Value
  Continuous,                             !- Numeric Type
  Temperature;                            !- Unit Type

OS:Surface,
  {357e211d-267f-450e-ba76-40e75565166d}, !- Handle
  Roof1,                                  !- Name
  RoofCeiling,                            !- Surface Type
  {dcf2639a-f386-4fd1-b96e-e99891f15bc5}, !- Construction Name
  {297ef18a-de3a-45e4-afb9-6887dcca4945}, !- Space Name
  Outdoors,                               !- Outside Boundary Condition
  ,                                       !- Outside Boundary Condition Object
  SunExposed,                             !- Sun Exposure
  WindExposed,                            !- Wind Exposure
  ,                                       !- View Factor to Ground
  ,                                       !- Number of Vertices
  -86.8928206876644, 26.7832187498194, 2.7432, !- X,Y,Z Vertex 1 {m}
  -76.4117772941086, 16.3021753562636, 10.1544168574938, !- X,Y,Z Vertex 2 {m}
  -64.6936145425506, 28.0203381078216, 10.1544168574938, !- X,Y,Z Vertex 3 {m}
  -75.1746579361065, 38.5013815013774, 2.7432; !- X,Y,Z Vertex 4 {m}

OS:AdditionalProperties,
  {ed06049a-fd7a-4835-a1c8-e12859369708}, !- Handle
  {357e211d-267f-450e-ba76-40e75565166d}, !- Object Name
  Length,                                 !- Feature Name 1
  Double,                                 !- Feature Data Type 1
  54.370028508361109,                     !- Feature Value 1
  Width,                                  !- Feature Name 2
  Double,                                 !- Feature Data Type 2
  54.370028508361109,                     !- Feature Value 2
  Azimuth,                                !- Feature Name 3
  Integer,                                !- Feature Data Type 3
  315,                                    !- Feature Value 3
  Tilt,                                   !- Feature Name 4
  Double,                                 !- Feature Data Type 4
  0.5,                                    !- Feature Value 4
  SurfaceType,                            !- Feature Name 5
  String,                                 !- Feature Data Type 5
  Roof;                                   !- Feature Value 5

OS:ThermalZone,
  {d137df92-f079-45a1-bbd7-9e895ffc15ff}, !- Handle
  attic - vented,                         !- Name
  1,                                      !- Multiplier
  ,                                       !- Ceiling Height {m}
  878.814516106843,                       !- Volume {m3}
  ,                                       !- Floor Area {m2}
  ,                                       !- Zone Inside Convection Algorithm
  ,                                       !- Zone Outside Convection Algorithm
  ,                                       !- Zone Conditioning Equipment List Name
  {d7628552-458c-422f-87be-f09ca7d724f8}, !- Zone Air Inlet Port List
  {a610ebed-9fce-492e-b061-640e3cb8db89}, !- Zone Air Exhaust Port List
  {1c8e6530-8932-4855-b4ca-670963998c5e}, !- Zone Air Node Name
  {05793e07-c7b1-4ecc-91c6-632fc6844e93}, !- Zone Return Air Port List
  ,                                       !- Primary Daylighting Control Name
  ,                                       !- Fraction of Zone Controlled by Primary Daylighting Control
  ,                                       !- Secondary Daylighting Control Name
  ,                                       !- Fraction of Zone Controlled by Secondary Daylighting Control
  ,                                       !- Illuminance Map Name
  ,                                       !- Group Rendering Name
  ,                                       !- Thermostat Name
  No;                                     !- Use Ideal Air Loads

OS:Node,
  {e7155027-9c7b-4cee-8a35-6836e20ac0dc}, !- Handle
  Node 2,                                 !- Name
  {1c8e6530-8932-4855-b4ca-670963998c5e}, !- Inlet Port
  ;                                       !- Outlet Port

OS:Connection,
  {1c8e6530-8932-4855-b4ca-670963998c5e}, !- Handle
  {d137df92-f079-45a1-bbd7-9e895ffc15ff}, !- Source Object
  11,                                     !- Outlet Port
  {e7155027-9c7b-4cee-8a35-6836e20ac0dc}, !- Target Object
  2;                                      !- Inlet Port

OS:PortList,
  {d7628552-458c-422f-87be-f09ca7d724f8}, !- Handle
  {d137df92-f079-45a1-bbd7-9e895ffc15ff}; !- HVAC Component

OS:PortList,
  {a610ebed-9fce-492e-b061-640e3cb8db89}, !- Handle
  {d137df92-f079-45a1-bbd7-9e895ffc15ff}; !- HVAC Component

OS:PortList,
  {05793e07-c7b1-4ecc-91c6-632fc6844e93}, !- Handle
  {d137df92-f079-45a1-bbd7-9e895ffc15ff}; !- HVAC Component

OS:Sizing:Zone,
  {644202cd-8a44-48f0-8520-63cbb81dd864}, !- Handle
  {d137df92-f079-45a1-bbd7-9e895ffc15ff}, !- Zone or ZoneList Name
  SupplyAirTemperature,                   !- Zone Cooling Design Supply Air Temperature Input Method
  14,                                     !- Zone Cooling Design Supply Air Temperature {C}
  11.11,                                  !- Zone Cooling Design Supply Air Temperature Difference {deltaC}
  SupplyAirTemperature,                   !- Zone Heating Design Supply Air Temperature Input Method
  40,                                     !- Zone Heating Design Supply Air Temperature {C}
  11.11,                                  !- Zone Heating Design Supply Air Temperature Difference {deltaC}
  0.0085,                                 !- Zone Cooling Design Supply Air Humidity Ratio {kg-H2O/kg-air}
  0.008,                                  !- Zone Heating Design Supply Air Humidity Ratio {kg-H2O/kg-air}
  ,                                       !- Zone Heating Sizing Factor
  ,                                       !- Zone Cooling Sizing Factor
  DesignDay,                              !- Cooling Design Air Flow Method
  ,                                       !- Cooling Design Air Flow Rate {m3/s}
  ,                                       !- Cooling Minimum Air Flow per Zone Floor Area {m3/s-m2}
  ,                                       !- Cooling Minimum Air Flow {m3/s}
  ,                                       !- Cooling Minimum Air Flow Fraction
  DesignDay,                              !- Heating Design Air Flow Method
  ,                                       !- Heating Design Air Flow Rate {m3/s}
  ,                                       !- Heating Maximum Air Flow per Zone Floor Area {m3/s-m2}
  ,                                       !- Heating Maximum Air Flow {m3/s}
  ,                                       !- Heating Maximum Air Flow Fraction
  No,                                     !- Account for Dedicated Outdoor Air System
  NeutralSupplyAir,                       !- Dedicated Outdoor Air System Control Strategy
  autosize,                               !- Dedicated Outdoor Air Low Setpoint Temperature for Design {C}
  autosize,                               !- Dedicated Outdoor Air High Setpoint Temperature for Design {C}
  Sensible Load Only No Latent Load,      !- Zone Load Sizing Method
  HumidityRatioDifference,                !- Zone Latent Cooling Design Supply Air Humidity Ratio Input Method
  ,                                       !- Zone Dehumidification Design Supply Air Humidity Ratio {kgWater/kgDryAir}
  0.005,                                  !- Zone Cooling Design Supply Air Humidity Ratio Difference {kgWater/kgDryAir}
  HumidityRatioDifference,                !- Zone Latent Heating Design Supply Air Humidity Ratio Input Method
  ,                                       !- Zone Humidification Design Supply Air Humidity Ratio {kgWater/kgDryAir}
  0.005,                                  !- Zone Humidification Design Supply Air Humidity Ratio Difference {kgWater/kgDryAir}
  ,                                       !- Zone Humidistat Dehumidification Set Point Schedule Name
  ,                                       !- Zone Humidistat Humidification Set Point Schedule Name
  ,                                       !- Design Zone Air Distribution Effectiveness in Cooling Mode
  ,                                       !- Design Zone Air Distribution Effectiveness in Heating Mode
  ,                                       !- Design Zone Secondary Recirculation Fraction {dimensionless}
  ,                                       !- Design Minimum Zone Ventilation Efficiency {dimensionless}
  Coincident;                             !- Sizing Option

OS:ZoneHVAC:EquipmentList,
  {b314660e-a3e8-4f50-bab5-3ac8d005ba16}, !- Handle
  Zone HVAC Equipment List 2,             !- Name
  {d137df92-f079-45a1-bbd7-9e895ffc15ff}; !- Thermal Zone

OS:AdditionalProperties,
  {c4977a2c-401c-493e-9c15-8465cf165e28}, !- Handle
  {d137df92-f079-45a1-bbd7-9e895ffc15ff}, !- Object Name
  ObjectType,                             !- Feature Name 1
  String,                                 !- Feature Data Type 1
  attic - vented;                         !- Feature Value 1

OS:Space,
  {297ef18a-de3a-45e4-afb9-6887dcca4945}, !- Handle
  attic - vented 1,                       !- Name
  ,                                       !- Space Type Name
  ,                                       !- Default Construction Set Name
  ,                                       !- Default Schedule Set Name
  ,                                       !- Direction of Relative North {deg}
  ,                                       !- X Origin {m}
  ,                                       !- Y Origin {m}
  ,                                       !- Z Origin {m}
  ,                                       !- Building Story Name
  {d137df92-f079-45a1-bbd7-9e895ffc15ff}, !- Thermal Zone Name
  ,                                       !- Part of Total Floor Area
  ,                                       !- Design Specification Outdoor Air Object Name
  ,                                       !- Building Unit Name
  878.814516106843;                       !- Volume {m3}

OS:Material,
  {18bf07ac-bce4-415f-bb25-a120a32e4cad}, !- Handle
  asphalt or fiberglass shingles,         !- Name
  Rough,                                  !- Roughness
  0.00635,                                !- Thickness {m}
  0.162714,                               !- Conductivity {W/m-K}
  1121.4,                                 !- Density {kg/m3}
  1465.45,                                !- Specific Heat {J/kg-K}
  0.9,                                    !- Thermal Absorptance
  0.85,                                   !- Solar Absorptance