
OS:Version,
  {f09181a0-fa2a-4e9c-9bbd-98dd239943e3}, !- Handle
  3.9.0;                                  !- Version Identifier

OS:SimulationControl,
  {56042f1d-e4a1-4b9f-88cb-dc02310df53a}, !- Handle
  ,                                       !- Do Zone Sizing Calculation
  ,                                       !- Do System Sizing Calculation
  ,                                       !- Do Plant Sizing Calculation
  No;                                     !- Run Simulation for Sizing Periods

OS:Timestep,
  {107ca6fa-c247-45e5-879f-e9738f10cdce}, !- Handle
  1;                                      !- Number of Timesteps per Hour

OS:ShadowCalculation,
  {25f9863b-8071-44d6-9939-53ec25739d73}, !- Handle
  PolygonClipping,                        !- Shading Calculation Method
  ,                                       !- Shading Calculation Update Frequency Method
  20,                                     !- Shading Calculation Update Frequency
  200,                                    !- Maximum Figures in Shadow Overlap Calculations
  ,                                       !- Polygon Clipping Algorithm
  512,                                    !- Pixel Counting Resolution
  ,                                       !- Sky Diffuse Modeling Algorithm
  No,                                     !- Output External Shading Calculation Results
  No,                                     !- Disable Self-Shading Within Shading Zone Groups
  No;                                     !- Disable Self-Shading From Shading Zone Groups to Other Zones

OS:SurfaceConvectionAlgorithm:Outside,
  {6bb00e09-453f-4286-9b99-abc25d2ee970}, !- Handle
  DOE-2;                                  !- Algorithm

OS:SurfaceConvectionAlgorithm:Inside,
  {0f094e63-38bd-43c9-b726-23d5afb89417}, !- Handle
  TARP;                                   !- Algorithm

OS:ZoneCapacitanceMultiplier:ResearchSpecial,
  {b0d5af3a-ed9d-4091-b42d-c3ffecfd58b0}, !- Handle
  7,                                      !- Temperature Capacity Multiplier
  15,                                     !- Humidity Capacity Multiplier
  ;                                       !- Carbon Dioxide Capacity Multiplier

OS:ConvergenceLimits,
  {828a2964-491a-4917-9cd9-614f61ce7ad9}, !- Handle
  0;                                      !- Minimum System Timestep {minutes}

OS:RunPeriod,
  {c5d64279-2eb7-445d-a7b0-8dc54e3942b5}, !- Handle
  Run Period 1,                           !- Name
  1,                                      !- Begin Month
  1,                                      !- Begin Day of Month
  12,                                     !- End Month
  31,                                     !- End Day of Month
  ,                                       !- Use Weather File Holidays and Special Days
  ,                                       !- Use Weather File Daylight Saving Period
  ,                                       !- Apply Weekend Holiday Rule
  ,                                       !- Use Weather File Rain Indicators
  ,                                       !- Use Weather File Snow Indicators
  ;                                       !- Number of Times Runperiod to be Repeated

OS:PerformancePrecisionTradeoffs,
  {6d315bdb-0731-46ed-8dec-dd8881a28713}, !- Handle
  ,                                       !- Use Coil Direct Solutions
  CarrollMRT;                             !- Zone Radiant Exchange Algorithm

OS:WeatherFile,
  {afa6a267-7071-4489-98ea-b2b953af8ef9}, !- Handle
  Buffalo Niagara Intl Ap,                !- City
  NY,                                     !- State Province Region
  USA,                                    !- Country
  TMY3,                                   !- Data Source
  725280,                                 !- WMO Number
  42.93,                                  !- Latitude {deg}
  -78.73,                                 !- Longitude {deg}
  -5,                                     !- Time Zone {hr}
  215,                                    !- Elevation {m}
  /Users/nmoore/github/urbanopt-example-geojson-project/example_project/weather/USA_NY_Buffalo-Greater.Buffalo.Intl.AP.725280_TMY3.epw, !- Url
  6B50E0FF,                               !- Checksum
  ,                                       !- Start Date Actual Year
  Sunday;                                 !- Start Day of Week

OS:YearDescription,
  {1b03c7f4-74b2-4e97-8531-209d9a26ff3b}, !- Handle
  2007,                                   !- Calendar Year
  ,                                       !- Day of Week for Start Day
  ;                                       !- Is Leap Year

OS:Site,
  {000f1531-7ae1-4d71-955d-d142b5aca8ae}, !- Handle
  Buffalo Niagara Intl Ap_NY,             !- Name
  42.93,                                  !- Latitude {deg}
  -78.73,                                 !- Longitude {deg}
  -5,                                     !- Time Zone {hr}
  215,                                    !- Elevation {m}
  Suburbs,                                !- Terrain
  Yes;                                    !- Keep Site Location Information

OS:RunPeriodControl:DaylightSavingTime,
  {ad2911db-afae-4a6a-aa96-99c7ae90b6bd}, !- Handle
  Mar 12,                                 !- Start Date
  Nov 5;                                  !- End Date

OS:Site:GroundTemperature:Shallow,
  {abd3d6d9-7537-4f32-be7f-92fc2ea6f6d7}, !- Handle
  4.30207395723828,                       !- January Surface Ground Temperature {C}
  2.29327249652502,                       !- February Surface Ground Temperature {C}
  2.13240047156047,                       !- March Surface Ground Temperature {C}
  3.08567940719286,                       !- April Surface Ground Temperature {C}
  6.91256312497526,                       !- May Surface Ground Temperature {C}
  10.7216195949507,                       !- June Surface Ground Temperature {C}
  14.0238679822574,                       !- July Surface Ground Temperature {C}
  16.1157611184724,                       !- August Surface Ground Temperature {C}
  16.2934789303462,                       !- September Surface Ground Temperature {C}
  14.5920754632847,                       !- October Surface Ground Temperature {C}
  11.374036348653,                        !- November Surface Ground Temperature {C}
  7.68182621661674;                       !- December Surface Ground Temperature {C}

OS:ThermalZone,
  {b47b15d1-5898-42eb-9edc-663cd4371e4b}, !- Handle
  conditioned space,                      !- Name
  1,                                      !- Multiplier
  ,                                       !- Ceiling Height {m}
  1132.67386368,                          !- Volume {m3}
  ,                                       !- Floor Area {m2}
  ,                                       !- Zone Inside Convection Algorithm
  ,                                       !- Zone Outside Convection Algorithm
  ,                                       !- Zone Conditioning Equipment List Name
  {1ce4eca9-9af0-4758-9e31-74bb07c5139c}, !- Zone Air Inlet Port List
  {1dec40be-e750-43bd-82e8-94bb71a78c5e}, !- Zone Air Exhaust Port List
  {ab82fde9-e6e9-4026-80b9-0f969a544f15}, !- Zone Air Node Name
  {faf24061-0c1c-4094-b688-f8e6bc46056f}, !- Zone Return Air Port List
  ,                                       !- Primary Daylighting Control Name
  ,                                       !- Fraction of Zone Controlled by Primary Daylighting Control
  ,                                       !- Secondary Daylighting Control Name
  ,                                       !- Fraction of Zone Controlled by Secondary Daylighting Control
  ,                                       !- Illuminance Map Name
  ,                                       !- Group Rendering Name
  {ef59246c-5cb0-45ff-8ed3-5e099738c5ee}, !- Thermostat Name
  No;                                     !- Use Ideal Air Loads

OS:Node,
  {a9754f81-0634-41cb-bf91-2b43a90433fe}, !- Handle
  Node 1,                                 !- Name
  {ab82fde9-e6e9-4026-80b9-0f969a544f15}, !- Inlet Port
  ;                                       !- Outlet Port

OS:Connection,
  {ab82fde9-e6e9-4026-80b9-0f969a544f15}, !- Handle
  {b47b15d1-5898-42eb-9edc-663cd4371e4b}, !- Source Object
  11,                                     !- Outlet Port
  {a9754f81-0634-41cb-bf91-2b43a90433fe}, !- Target Object
  2;                                      !- Inlet Port

OS:PortList,
  {1ce4eca9-9af0-4758-9e31-74bb07c5139c}, !- Handle
  {b47b15d1-5898-42eb-9edc-663cd4371e4b}, !- HVAC Component
  {64dcca0f-f0d2-4c5d-9d2d-20839f915a75}; !- Port 1

OS:PortList,
  {1dec40be-e750-43bd-82e8-94bb71a78c5e}, !- Handle
  {b47b15d1-5898-42eb-9edc-663cd4371e4b}; !- HVAC Component

OS:PortList,
  {faf24061-0c1c-4094-b688-f8e6bc46056f}, !- Handle
  {b47b15d1-5898-42eb-9edc-663cd4371e4b}, !- HVAC Component
  {da7b83b5-15a9-490d-872e-e634e8aab36e}; !- Port 1

OS:Sizing:Zone,
  {b598a94d-e20f-4964-ace9-e342df589bd6}, !- Handle
  {b47b15d1-5898-42eb-9edc-663cd4371e4b}, !- Zone or ZoneList Name
  SupplyAirTemperature,                   !- Zone Cooling Design Supply Air Temperature Input Method
  14,                                     !- Zone Cooling Design Supply Air Temperature {C}
  11.11,                                  !- Zone Cooling Design Supply Air Temperature Difference {deltaC}
  SupplyAirTemperature,                   !- Zone Heating Design Supply Air Temperature Input Method
  40,                                     !- Zone Heating Design Supply Air Temperature {C}
  11.11,                                  !- Zone Heating Design Supply Air Temperature Difference {deltaC}
  0.0085,                                 !- Zone Cooling Design Supply Air Humidity Ratio {kg-H2O/kg-air}
  0.008,                                  !- Zone Heating Design Supply Air Humidity Ratio {kg-H2O/kg-air}
  ,                                       !- Zone Heating Sizing Factor
  ,                                       !- Zone Cooling Sizing Factor
  DesignDay,                              !- Cooling Design Air Flow Method
  ,                                       !- Cooling Design Air Flow Rate {m3/s}
  ,                                       !- Cooling Minimum Air Flow per Zone Floor Area {m3/s-m2}
  ,                                       !- Cooling Minimum Air Flow {m3/s}
  ,                                       !- Cooling Minimum Air Flow Fraction
  DesignDay,                              !- Heating Design Air Flow Method
  ,                                       !- Heating Design Air Flow Rate {m3/s}
  ,                                       !- Heating Maximum Air Flow per Zone Floor Area {m3/s-m2}
  ,                                       !- Heating Maximum Air Flow {m3/s}
  ,                                       !- Heating Maximum Air Flow Fraction
  No,                                     !- Account for Dedicated Outdoor Air System
  NeutralSupplyAir,                       !- Dedicated Outdoor Air System Control Strategy
  autosize,                               !- Dedicated Outdoor Air Low Setpoint Temperature for Design {C}
  autosize,                               !- Dedicated Outdoor Air High Setpoint Temperature for Design {C}
  Sensible Load Only No Latent Load,      !- Zone Load Sizing Method
  HumidityRatioDifference,                !- Zone Latent Cooling Design Supply Air Humidity Ratio Input Method
  ,                                       !- Zone Dehumidification Design Supply Air Humidity Ratio {kgWater/kgDryAir}
  0.005,                                  !- Zone Cooling Design Supply Air Humidity Ratio Difference {kgWater/kgDryAir}
  HumidityRatioDifference,                !- Zone Latent Heating Design Supply Air Humidity Ratio Input Method
  ,                                       !- Zone Humidification Design Supply Air Humidity Ratio {kgWater/kgDryAir}
  0.005,                                  !- Zone Humidification Design Supply Air Humidity Ratio Difference {kgWater/kgDryAir}
  ,                                       !- Zone Humidistat Dehumidification Set Point Schedule Name
  ,                                       !- Zone Humidistat Humidification Set Point Schedule Name
  ,                                       !- Design Zone Air Distribution Effectiveness in Cooling Mode
  ,                                       !- Design Zone Air Distribution Effectiveness in Heating Mode
  ,                                       !- Design Zone Secondary Recirculation Fraction {dimensionless}
  ,                                       !- Design Minimum Zone Ventilation Efficiency {dimensionless}
  Coincident;                             !- Sizing Option

OS:ZoneHVAC:EquipmentList,
  {c1e90afc-57e3-4761-b646-87d4ec03bdf8}, !- Handle
  Zone HVAC Equipment List 1,             !- Name
  {b47b15d1-5898-42eb-9edc-663cd4371e4b}, !- Thermal Zone
  ,                                       !- Load Distribution Scheme
  {83d5f627-57c7-47d3-b6c7-41ec643a504d}, !- Zone Equipment 1
  1,                                      !- Zone Equipment Cooling Sequence 1
  1,                                      !- Zone Equipment Heating or No-Load Sequence 1
  {162a5a1a-d16e-419d-87a1-c303d97d52f0}, !- Zone Equipment Sequential Cooling Fraction Schedule Name 1
  {63fc2d38-cf49-44a3-b284-03a19e349dd0}; !- Zone Equipment Sequential Heating Fraction Schedule Name 1

OS:AdditionalProperties,
  {595bd612-d2a4-464a-bf42-bb1fb637ca30}, !- Handle
  {b47b15d1-5898-42eb-9edc-663cd4371e4b}, !- Object Name
  ObjectType,                             !- Feature Name 1
  String,                                 !- Feature Data Type 1
  conditioned space;                      !- Feature Value 1

OS:Space,
  {e62c6952-d86d-4cbc-97fa-e58f0f06b646}, !- Handle
  conditioned space 1,                    !- Name
  ,                                       !- Space Type Name
  ,                                       !- Default Construction Set Name
  ,                                       !- Default Schedule Set Name
  ,                                       !- Direction of Relative North {deg}
  ,                                       !- X Origin {m}
  ,                                       !- Y Origin {m}
  ,                                       !- Z Origin {m}
  ,                                       !- Building Story Name
  {b47b15d1-5898-42eb-9edc-663cd4371e4b}, !- Thermal Zone Name
  ,                                       !- Part of Total Floor Area
  ,                                       !- Design Specification Outdoor Air Object Name
  ,                                       !- Building Unit Name
  1132.67386368;                          !- Volume {m3}

OS:Schedule:Ruleset,
  {73885b75-894c-41bb-820e-3c3e9aa14505}, !- Handle
  heating setpoint,                       !- Name
  {f9efd6c7-faa7-46ac-ad70-3bd390799b1e}, !- Schedule Type Limits Name
  {16c126b8-b6c6-4d04-aa5a-298a675434c4}; !- Default Day Schedule Name

OS:Schedule:Day,
  {16c126b8-b6c6-4d04-aa5a-298a675434c4}, !- Handle
  heating setpoint default day,           !- Name
  {f9efd6c7-faa7-46ac-ad70-3bd390799b1e}, !- Schedule Type Limits Name
  ,                                       !- Interpolate to Timestep
  24,                                     !- Hour 1
  0,                                      !- Minute 1
  0;                                      !- Value Until Time 1

OS:Schedule:Rule,
  {97caaec1-9374-446e-81e0-3357799bf4ce}, !- Handle
  heating setpoint allday rule,           !- Name
  {73885b75-894c-41bb-820e-3c3e9aa14505}, !- Schedule Ruleset Name
  0,                                      !- Rule Order
  {a9bd6f0b-419e-45aa-a7ce-b5870c5bdf03}, !- Day Schedule Name
  Yes,                                    !- Apply Sunday
  Yes,                                    !- Apply Monday
  Yes,                                    !- Apply Tuesday
  Yes,                                    !- Apply Wednesday
  Yes,                                    !- Apply Thursday
  Yes,                                    !- Apply Friday
  Yes,                                    !- Apply Saturday
  DateRange,                              !- Date Specification Type
  1,                                      !- Start Month
  1,                                      !- Start Day
  12,                                     !- End Month
  31;                                     !- End Day

OS:Schedule:Day,
  {a9bd6f0b-419e-45aa-a7ce-b5870c5bdf03}, !- Handle
  heating setpoint day,                   !- Name
  {f9efd6c7-faa7-46ac-ad70-3bd390799b1e}, !- Schedule Type Limits Name
  ,                                       !- Interpolate to Timestep
  1,                                      !- Hour 1
  0,                                      !- Minute 1
  20,                                     !- Value Until Time 1
  10,                                     !- Hour 2
  0,                                      !- Minute 2
  18.3333333333333,                       !- Value Until Time 2
  24,                                     !- Hour 3
  0,                                      !- Minute 3
  20;                                     !- Value Until Time 3

OS:Schedule:Ruleset,
  {6d3d7826-5933-49af-86a1-238f3594031b}, !- Handle
  cooling setpoint,                       !- Name
  {f9efd6c7-faa7-46ac-ad70-3bd390799b1e}, !- Schedule Type Limits Name
  {60d80617-00c4-4f9c-be2a-03aec6cfa2e2}; !- Default Day Schedule Name

OS:Schedule:Day,
  {60d80617-00c4-4f9c-be2a-03aec6cfa2e2}, !- Handle
  cooling setpoint default day,           !- Name
  {f9efd6c7-faa7-46ac-ad70-3bd390799b1e}, !- Schedule Type Limits Name
  ,                                       !- Interpolate to Timestep
  24,                                     !- Hour 1
  0,                                      !- Minute 1
  0;                                      !- Value Until Time 1

OS:Schedule:Rule,
  {78ab451b-5a1a-40a2-950f-00b0e60b62ba}, !- Handle
  cooling setpoint allday rule,           !- Name
  {6d3d7826-5933-49af-86a1-238f3594031b}, !- Schedule Ruleset Name
  0,                                      !- Rule Order
  {e713029a-e12f-4551-adc4-c44f85e2cf61}, !- Day Schedule Name
  Yes,                                    !- Apply Sunday
  Yes,                                    !- Apply Monday
  Yes,                                    !- Apply Tuesday
  Yes,                                    !- Apply Wednesday
  Yes,                                    !- Apply Thursday
  Yes,                                    !- Apply Friday
  Yes,                                    !- Apply Saturday
  DateRange,                              !- Date Specification Type
  1,                                      !- Start Month
  1,                                      !- Start Day
  12,                                     !- End Month
  31;                                     !- End Day

OS:Schedule:Day,
  {e713029a-e12f-4551-adc4-c44f85e2cf61}, !- Handle
  cooling setpoint day,                   !- Name
  {f9efd6c7-faa7-46ac-ad70-3bd390799b1e}, !- Schedule Type Limits Name
  ,                                       !- Interpolate to Timestep
  24,                                     !- Hour 1
  0,                                      !- Minute 1
  21.1111111111111;                       !- Value Until Time 1

OS:ThermostatSetpoint:DualSetpoint,
  {ef59246c-5cb0-45ff-8ed3-5e099738c5ee}, !- Handle
  conditioned space temperature setpoint, !- Name
  {73885b75-894c-41bb-820e-3c3e9aa14505}, !- Heating Setpoint Temperature Schedule Name
  {6d3d7826-5933-49af-86a1-238f3594031b}, !- Cooling Setpoint Temperature Schedule Name
  0;                                      !- Temperature Difference Between Cutout And Setpoint {deltaC}

OS:ScheduleTypeLimits,
  {f9efd6c7-faa7-46ac-ad70-3bd390799b1e}, !- Handle
  Temperature,                            !- Name
  ,                                       !- Lower Limit Value
  ,                                       !- Upper Limit Value
  Continuous,                             !- Numeric Type
  Temperature;                            !- Unit Type

OS:Surface,
  {6cc122f7-b4dd-4c7a-b71c-05e58a62acb7}, !- Handle
  Roof1,                                  !- Name
  RoofCeiling,                            !- Surface Type
  {896cb05f-e144-4ca6-ae31-f462d9da002f}, !- Construction Name
  {27b5d2b7-d919-44c8-81f3-0b14e1e4c814}, !- Space Name
  Outdoors,                               !- Outside Boundary Condition
  ,                                       !- Outside Boundary Condition Object
  SunExposed,                             !- Sun Exposure
  WindExposed,                            !- Wind Exposure
  ,                                       !- View Factor to Ground
  ,                                       !- Number of Vertices
  21.0066325137345, -56.985332797945, 5.1816, !- X,Y,Z Vertex 1 {m}
  21.0066325137345, -46.7938854659906, 10.2773236659772, !- X,Y,Z Vertex 2 {m}
  9.61224800205504, -46.7938854659906, 10.2773236659772, !- X,Y,Z Vertex 3 {m}
  9.61224800205504, -56.985332797945, 5.1816; !- X,Y,Z Vertex 4 {m}

OS:AdditionalProperties,
  {7eeb2759-8b8b-4c55-933f-a1e387673a66}, !- Handle
  {6cc122f7-b4dd-4c7a-b71c-05e58a62acb7}, !- Object Name
  Length,                                 !- Feature Name 1
  Double,                                 !- Feature Data Type 1
  37.383151285037492,                     !- Feature Value 1
  Width,                                  !- Feature Name 2
  Double,                                 !- Feature Data Type 2
  37.383151285037485,                     !- Feature Value 2
  Azimuth,                                !- Feature Name 3
  Integer,                                !- Feature Data Type 3
  180,                                    !- Feature Value 3
  Tilt,                                   !- Feature Name 4
  Double,                                 !- Feature Data Type 4
  0.5,                                    !- Feature Value 4
  SurfaceType,                            !- Feature Name 5
  String,                                 !- Feature Data Type 5
  Roof;                                   !- Feature Value 5

OS:ThermalZone,
  {fe04e3cf-f6cd-470b-af11-a8080769e994}, !- Handle
  attic - vented,                         !- Name
  1,                                      !- Multiplier
  ,                                       !- Ceiling Height {m}
  335.084689232857,                       !- Volume {m3}
  ,                                       !- Floor Area {m2}
  ,                                       !- Zone Inside Convection Algorithm
  ,                                       !- Zone Outside Convection Algorithm
  ,                                       !- Zone Conditioning Equipment List Name
  {7853934b-8b8e-4145-b072-eef87401a4e7}, !- Zone Air Inlet Port List
  {651fa6bb-7d85-4820-8179-25fa72f6ec13}, !- Zone Air Exhaust Port List
  {6c92d915-5937-4699-92d2-56fc7fc00469}, !- Zone Air Node Name
  {129d87f4-0c33-4c46-8496-437a60bc7268}, !- Zone Return Air Port List
  ,                                       !- Primary Daylighting Control Name
  ,                                       !- Fraction of Zone Controlled by Primary Daylighting Control
  ,                                       !- Secondary Daylighting Control Name
  ,                                       !- Fraction of Zone Controlled by Secondary Daylighting Control
  ,                                       !- Illuminance Map Name
  ,                                       !- Group Rendering Name
  ,                                       !- Thermostat Name
  No;                                     !- Use Ideal Air Loads

OS:Node,
  {6617892e-aa97-481e-8fae-017fa7ec1a03}, !- Handle
  Node 2,                                 !- Name
  {6c92d915-5937-4699-92d2-56fc7fc00469}, !- Inlet Port
  ;                                       !- Outlet Port

OS:Connection,
  {6c92d915-5937-4699-92d2-56fc7fc00469}, !- Handle
  {fe04e3cf-f6cd-470b-af11-a8080769e994}, !- Source Object
  11,                                     !- Outlet Port
  {6617892e-aa97-481e-8fae-017fa7ec1a03}, !- Target Object
  2;                                      !- Inlet Port

OS:PortList,
  {7853934b-8b8e-4145-b072-eef87401a4e7}, !- Handle
  {fe04e3cf-f6cd-470b-af11-a8080769e994}; !- HVAC Component

OS:PortList,
  {651fa6bb-7d85-4820-8179-25fa72f6ec13}, !- Handle
  {fe04e3cf-f6cd-470b-af11-a8080769e994}; !- HVAC Component

OS:PortList,
  {129d87f4-0c33-4c46-8496-437a60bc7268}, !- Handle
  {fe04e3cf-f6cd-470b-af11-a8080769e994}; !- HVAC Component

OS:Sizing:Zone,
  {7f692ffa-d999-4ffb-b899-0874c52348ce}, !- Handle
  {fe04e3cf-f6cd-470b-af11-a8080769e994}, !- Zone or ZoneList Name
  SupplyAirTemperature,                   !- Zone Cooling Design Supply Air Temperature Input Method
  14,                                     !- Zone Cooling Design Supply Air Temperature {C}
  11.11,                                  !- Zone Cooling Design Supply Air Temperature Difference {deltaC}
  SupplyAirTemperature,                   !- Zone Heating Design Supply Air Temperature Input Method
  40,                                     !- Zone Heating Design Supply Air Temperature {C}
  11.11,                                  !- Zone Heating Design Supply Air Temperature Difference {deltaC}
  0.0085,                                 !- Zone Cooling Design Supply Air Humidity Ratio {kg-H2O/kg-air}
  0.008,                                  !- Zone Heating Design Supply Air Humidity Ratio {kg-H2O/kg-air}
  ,                                       !- Zone Heating Sizing Factor
  ,                                       !- Zone Cooling Sizing Factor
  DesignDay,                              !- Cooling Design Air Flow Method
  ,                                       !- Cooling Design Air Flow Rate {m3/s}
  ,                                       !- Cooling Minimum Air Flow per Zone Floor Area {m3/s-m2}
  ,                                       !- Cooling Minimum Air Flow {m3/s}
  ,                                       !- Cooling Minimum Air Flow Fraction
  DesignDay,                              !- Heating Design Air Flow Method
  ,                                       !- Heating Design Air Flow Rate {m3/s}
  ,                                       !- Heating Maximum Air Flow per Zone Floor Area {m3/s-m2}
  ,                                       !- Heating Maximum Air Flow {m3/s}
  ,                                       !- Heating Maximum Air Flow Fraction
  No,                                     !- Account for Dedicated Outdoor Air System
  NeutralSupplyAir,                       !- Dedicated Outdoor Air System Control Strategy
  autosize,                               !- Dedicated Outdoor Air Low Setpoint Temperature for Design {C}
  autosize,                               !- Dedicated Outdoor Air High Setpoint Temperature for Design {C}
  Sensible Load Only No Latent Load,      !- Zone Load Sizing Method
  HumidityRatioDifference,                !- Zone Latent Cooling Design Supply Air Humidity Ratio Input Method
  ,                                       !- Zone Dehumidification Design Supply Air Humidity Ratio {kgWater/kgDryAir}
  0.005,                                  !- Zone Cooling Design Supply Air Humidity Ratio Difference {kgWater/kgDryAir}
  HumidityRatioDifference,                !- Zone Latent Heating Design Supply Air Humidity Ratio Input Method
  ,                                       !- Zone Humidification Design Supply Air Humidity Ratio {kgWater/kgDryAir}
  0.005,                                  !- Zone Humidification Design Supply Air Humidity Ratio Difference {kgWater/kgDryAir}
  ,                                       !- Zone Humidistat Dehumidification Set Point Schedule Name
  ,                                       !- Zone Humidistat Humidification Set Point Schedule Name
  ,                                       !- Design Zone Air Distribution Effectiveness in Cooling Mode
  ,                                       !- Design Zone Air Distribution Effectiveness in Heating Mode
  ,                                       !- Design Zone Secondary Recirculation Fraction {dimensionless}
  ,                                       !- Design Minimum Zone Ventilation Efficiency {dimensionless}
  Coincident;                             !- Sizing Option

OS:ZoneHVAC:EquipmentList,
  {ad806201-e00b-4c90-9351-ba06fe038ed7}, !- Handle
  Zone HVAC Equipment List 2,             !- Name
  {fe04e3cf-f6cd-470b-af11-a8080769e994}; !- Thermal Zone

OS:AdditionalProperties,
  {a027f2fe-869d-4a93-a11c-185c9c45b4b5}, !- Handle
  {fe04e3cf-f6cd-470b-af11-a8080769e994}, !- Object Name
  ObjectType,                             !- Feature Name 1
  String,                                 !- Feature Data Type 1
  attic - vented;                         !- Feature Value 1

OS:Space,
  {27b5d2b7-d919-44c8-81f3-0b14e1e4c814}, !- Handle
  attic - vented 1,                       !- Name
  ,                                       !- Space Type Name
  ,                                       !- Default Construction Set Name
  ,                                       !- Default Schedule Set Name
  ,                                       !- Direction of Relative North {deg}
  ,                                       !- X Origin {m}
  ,                                       !- Y Origin {m}
  ,                                       !- Z Origin {m}
  ,                                       !- Building Story Name
  {fe04e3cf-f6cd-470b-af11-a8080769e994}, !- Thermal Zone Name
  ,                                       !- Part of Total Floor Area
  ,                                       !- Design Specification Outdoor Air Object Name
  ,                                       !- Building Unit Name
  335.084689232857;                       !- Volume {m3}

OS:Material,
  {a47d62a3-bb22-447c-9b8f-0a2b9d5cea72}, !- Handle
  asphalt or fiberglass shingles,         !- Name
  Rough,                                  !- Roughness
  0.00635,                                !- Thickness {m}