
OS:Version,
  {8fe8c4db-df6c-462f-906e-e53142aed21f}, !- Handle
  3.10.0;                                 !- Version Identifier

OS:SimulationControl,
  {08fd83e1-d3cf-490f-ac1a-6f2831f4145d}, !- Handle
  ,                                       !- Do Zone Sizing Calculation
  ,                                       !- Do System Sizing Calculation
  ,                                       !- Do Plant Sizing Calculation
  No;                                     !- Run Simulation for Sizing Periods

OS:Timestep,
  {995a8713-8da8-4e91-b51e-18374a689db5}, !- Handle
  1;                                      !- Number of Timesteps per Hour

OS:ShadowCalculation,
  {63d18e06-6376-414c-ad3b-969f90a3169a}, !- Handle
  PolygonClipping,                        !- Shading Calculation Method
  ,                                       !- Shading Calculation Update Frequency Method
  20,                                     !- Shading Calculation Update Frequency
  200,                                    !- Maximum Figures in Shadow Overlap Calculations
  ,                                       !- Polygon Clipping Algorithm
  512,                                    !- Pixel Counting Resolution
  ,                                       !- Sky Diffuse Modeling Algorithm
  No,                                     !- Output External Shading Calculation Results
  No,                                     !- Disable Self-Shading Within Shading Zone Groups
  No;                                     !- Disable Self-Shading From Shading Zone Groups to Other Zones

OS:SurfaceConvectionAlgorithm:Outside,
  {c2ba122f-9743-4b46-8514-035fc8e753c3}, !- Handle
  DOE-2;                                  !- Algorithm

OS:SurfaceConvectionAlgorithm:Inside,
  {80a05ff9-42e7-4b37-a314-b0a32548e9da}, !- Handle
  TARP;                                   !- Algorithm

OS:ZoneCapacitanceMultiplier:ResearchSpecial,
  {c48e1674-827c-4ba5-a99f-81b444394b52}, !- Handle
  7,                                      !- Temperature Capacity Multiplier
  15,                                     !- Humidity Capacity Multiplier
  ;                                       !- Carbon Dioxide Capacity Multiplier

OS:ConvergenceLimits,
  {a3a8283a-6097-4ece-8f68-cd4af1cbf664}, !- Handle
  0;                                      !- Minimum System Timestep {minutes}

OS:RunPeriod,
  {ba80af87-889e-4b83-a5ef-a61252951361}, !- Handle
  Run Period 1,                           !- Name
  1,                                      !- Begin Month
  1,                                      !- Begin Day of Month
  12,                                     !- End Month
  31,                                     !- End Day of Month
  ,                                       !- Use Weather File Holidays and Special Days
  ,                                       !- Use Weather File Daylight Saving Period
  ,                                       !- Apply Weekend Holiday Rule
  ,                                       !- Use Weather File Rain Indicators
  ,                                       !- Use Weather File Snow Indicators
  ;                                       !- Number of Times Runperiod to be Repeated

OS:PerformancePrecisionTradeoffs,
  {8f9de011-fb63-4d12-9926-c7a7a837019b}, !- Handle
  ,                                       !- Use Coil Direct Solutions
  CarrollMRT;                             !- Zone Radiant Exchange Algorithm

OS:WeatherFile,
  {936317dc-fff4-4c2c-aee1-b7fa5e11c2eb}, !- Handle
  Buffalo Niagara Intl Ap,                !- City
  NY,                                     !- State Province Region
  USA,                                    !- Country
  TMY3,                                   !- Data Source
  725280,                                 !- WMO Number
  42.93,                                  !- Latitude {deg}
  -78.73,                                 !- Longitude {deg}
  -5,                                     !- Time Zone {hr}
  215,                                    !- Elevation {m}
  /Users/nmoore/github/urbanopt-example-geojson-project/example_project/weather/USA_NY_Buffalo-Greater.Buffalo.Intl.AP.725280_TMY3.epw, !- Url
  6B50E0FF,                               !- Checksum
  ,                                       !- Start Date Actual Year
  Sunday;                                 !- Start Day of Week

OS:YearDescription,
  {65146730-8917-4f62-bdf4-f01d111815b6}, !- Handle
  2007,                                   !- Calendar Year
  ,                                       !- Day of Week for Start Day
  ;                                       !- Is Leap Year

OS:Site,
  {864a4fa7-5182-412a-a580-1dd6f540f404}, !- Handle
  Buffalo Niagara Intl Ap_NY,             !- Name
  42.93,                                  !- Latitude {deg}
  -78.73,                                 !- Longitude {deg}
  -5,                                     !- Time Zone {hr}
  215,                                    !- Elevation {m}
  Suburbs,                                !- Terrain
  Yes;                                    !- Keep Site Location Information

OS:RunPeriodControl:DaylightSavingTime,
  {588aa308-b58e-483a-bce3-f28180fa575f}, !- Handle
  Mar 12,                                 !- Start Date
  Nov 5;                                  !- End Date

OS:Site:GroundTemperature:Shallow,
  {f5e1991d-1a15-43c0-a762-b308e11d6bc1}, !- Handle
  4.30207395723828,                       !- January Surface Ground Temperature {C}
  2.29327249652502,                       !- February Surface Ground Temperature {C}
  2.13240047156047,                       !- March Surface Ground Temperature {C}
  3.08567940719286,                       !- April Surface Ground Temperature {C}
  6.91256312497526,                       !- May Surface Ground Temperature {C}
  10.7216195949507,                       !- June Surface Ground Temperature {C}
  14.0238679822574,                       !- July Surface Ground Temperature {C}
  16.1157611184724,                       !- August Surface Ground Temperature {C}
  16.2934789303462,                       !- September Surface Ground Temperature {C}
  14.5920754632847,                       !- October Surface Ground Temperature {C}
  11.374036348653,                        !- November Surface Ground Temperature {C}
  7.68182621661674;                       !- December Surface Ground Temperature {C}

OS:ThermalZone,
  {37e9fd84-3db3-4800-8d76-6671951a0457}, !- Handle
  conditioned space,                      !- Name
  1,                                      !- Multiplier
  ,                                       !- Ceiling Height {m}
  692.06373070848,                        !- Volume {m3}
  ,                                       !- Floor Area {m2}
  ,                                       !- Zone Inside Convection Algorithm
  ,                                       !- Zone Outside Convection Algorithm
  ,                                       !- Zone Conditioning Equipment List Name
  {a5b3b506-93b6-4945-9820-deefdf3a0990}, !- Zone Air Inlet Port List
  {2eeb5683-2cbc-4e02-8e53-b2c22cb19ef1}, !- Zone Air Exhaust Port List
  {802a6c91-a967-4c2b-a9a9-9283e2eebf70}, !- Zone Air Node Name
  {f28b4bce-c54a-4e28-87eb-369fa29b5b18}, !- Zone Return Air Port List
  ,                                       !- Primary Daylighting Control Name
  ,                                       !- Fraction of Zone Controlled by Primary Daylighting Control
  ,                                       !- Secondary Daylighting Control Name
  ,                                       !- Fraction of Zone Controlled by Secondary Daylighting Control
  ,                                       !- Illuminance Map Name
  ,                                       !- Group Rendering Name
  {ed7b2f8e-0cb4-4ede-83e8-6af2f0575d2c}, !- Thermostat Name
  No;                                     !- Use Ideal Air Loads

OS:Node,
  {28a4e425-7b0d-4d65-b282-ad3dac2446bd}, !- Handle
  Node 1,                                 !- Name
  {802a6c91-a967-4c2b-a9a9-9283e2eebf70}, !- Inlet Port
  ;                                       !- Outlet Port

OS:Connection,
  {802a6c91-a967-4c2b-a9a9-9283e2eebf70}, !- Handle
  {37e9fd84-3db3-4800-8d76-6671951a0457}, !- Source Object
  11,                                     !- Outlet Port
  {28a4e425-7b0d-4d65-b282-ad3dac2446bd}, !- Target Object
  2;                                      !- Inlet Port

OS:PortList,
  {a5b3b506-93b6-4945-9820-deefdf3a0990}, !- Handle
  {37e9fd84-3db3-4800-8d76-6671951a0457}, !- HVAC Component
  {938a097c-779b-4343-a89a-1b42f231e9e7}; !- Port 1

OS:PortList,
  {2eeb5683-2cbc-4e02-8e53-b2c22cb19ef1}, !- Handle
  {37e9fd84-3db3-4800-8d76-6671951a0457}; !- HVAC Component

OS:PortList,
  {f28b4bce-c54a-4e28-87eb-369fa29b5b18}, !- Handle
  {37e9fd84-3db3-4800-8d76-6671951a0457}, !- HVAC Component
  {809f5c7b-c7c7-4771-9200-8e5e54ee23af}; !- Port 1

OS:Sizing:Zone,
  {6f384f1b-a323-4201-93ff-f3e2e5727db8}, !- Handle
  {37e9fd84-3db3-4800-8d76-6671951a0457}, !- Zone or ZoneList Name
  SupplyAirTemperature,                   !- Zone Cooling Design Supply Air Temperature Input Method
  14,                                     !- Zone Cooling Design Supply Air Temperature {C}
  11.11,                                  !- Zone Cooling Design Supply Air Temperature Difference {deltaC}
  SupplyAirTemperature,                   !- Zone Heating Design Supply Air Temperature Input Method
  40,                                     !- Zone Heating Design Supply Air Temperature {C}
  11.11,                                  !- Zone Heating Design Supply Air Temperature Difference {deltaC}
  0.0085,                                 !- Zone Cooling Design Supply Air Humidity Ratio {kg-H2O/kg-air}
  0.008,                                  !- Zone Heating Design Supply Air Humidity Ratio {kg-H2O/kg-air}
  ,                                       !- Zone Heating Sizing Factor
  ,                                       !- Zone Cooling Sizing Factor
  DesignDay,                              !- Cooling Design Air Flow Method
  ,                                       !- Cooling Design Air Flow Rate {m3/s}
  ,                                       !- Cooling Minimum Air Flow per Zone Floor Area {m3/s-m2}
  ,                                       !- Cooling Minimum Air Flow {m3/s}
  ,                                       !- Cooling Minimum Air Flow Fraction
  DesignDay,                              !- Heating Design Air Flow Method
  ,                                       !- Heating Design Air Flow Rate {m3/s}
  ,                                       !- Heating Maximum Air Flow per Zone Floor Area {m3/s-m2}
  ,                                       !- Heating Maximum Air Flow {m3/s}
  ,                                       !- Heating Maximum Air Flow Fraction
  No,                                     !- Account for Dedicated Outdoor Air System
  NeutralSupplyAir,                       !- Dedicated Outdoor Air System Control Strategy
  autosize,                               !- Dedicated Outdoor Air Low Setpoint Temperature for Design {C}
  autosize,                               !- Dedicated Outdoor Air High Setpoint Temperature for Design {C}
  Sensible Load Only No Latent Load,      !- Zone Load Sizing Method
  HumidityRatioDifference,                !- Zone Latent Cooling Design Supply Air Humidity Ratio Input Method
  ,                                       !- Zone Dehumidification Design Supply Air Humidity Ratio {kgWater/kgDryAir}
  0.005,                                  !- Zone Cooling Design Supply Air Humidity Ratio Difference {kgWater/kgDryAir}
  HumidityRatioDifference,                !- Zone Latent Heating Design Supply Air Humidity Ratio Input Method
  ,                                       !- Zone Humidification Design Supply Air Humidity Ratio {kgWater/kgDryAir}
  0.005,                                  !- Zone Humidification Design Supply Air Humidity Ratio Difference {kgWater/kgDryAir}
  ,                                       !- Zone Humidistat Dehumidification Set Point Schedule Name
  ,                                       !- Zone Humidistat Humidification Set Point Schedule Name
  ,                                       !- Design Zone Air Distribution Effectiveness in Cooling Mode
  ,                                       !- Design Zone Air Distribution Effectiveness in Heating Mode
  ,                                       !- Design Zone Secondary Recirculation Fraction {dimensionless}
  ,                                       !- Design Minimum Zone Ventilation Efficiency {dimensionless}
  Coincident;                             !- Sizing Option

OS:ZoneHVAC:EquipmentList,
  {4d94fd99-4365-4036-96d4-08dd0e10d70f}, !- Handle
  Zone HVAC Equipment List 1,             !- Name
  {37e9fd84-3db3-4800-8d76-6671951a0457}, !- Thermal Zone
  ,                                       !- Load Distribution Scheme
  {5d57d9fa-5386-486a-8bdf-23bcd92ffa68}, !- Zone Equipment 1
  1,                                      !- Zone Equipment Cooling Sequence 1
  1,                                      !- Zone Equipment Heating or No-Load Sequence 1
  {b49a43dd-5f3e-44ac-8a61-5e6fe1b92021}, !- Zone Equipment Sequential Cooling Fraction Schedule Name 1
  {4e98edd9-f1cf-48c5-9e89-b4c518065ad1}, !- Zone Equipment Sequential Heating Fraction Schedule Name 1
  {34884a57-c058-4a82-8951-cc31a42f354b}, !- Zone Equipment 2
  2,                                      !- Zone Equipment Cooling Sequence 2
  2,                                      !- Zone Equipment Heating or No-Load Sequence 2
  {06aee9d8-af82-42cb-bb3b-750146e00c70}, !- Zone Equipment Sequential Cooling Fraction Schedule Name 2
  {388d0937-49bf-4e8e-aa9d-f07564fdcc13}; !- Zone Equipment Sequential Heating Fraction Schedule Name 2

OS:AdditionalProperties,
  {9c3cee4b-23b1-4a89-bca3-e5514b0d8706}, !- Handle
  {37e9fd84-3db3-4800-8d76-6671951a0457}, !- Object Name
  ObjectType,                             !- Feature Name 1
  String,                                 !- Feature Data Type 1
  conditioned space;                      !- Feature Value 1

OS:Space,
  {119b9d3c-ceb8-4e38-a634-22ef016d9e00}, !- Handle
  conditioned space 1,                    !- Name
  ,                                       !- Space Type Name
  ,                                       !- Default Construction Set Name
  ,                                       !- Default Schedule Set Name
  ,                                       !- Direction of Relative North {deg}
  ,                                       !- X Origin {m}
  ,                                       !- Y Origin {m}
  ,                                       !- Z Origin {m}
  ,                                       !- Building Story Name
  {37e9fd84-3db3-4800-8d76-6671951a0457}, !- Thermal Zone Name
  ,                                       !- Part of Total Floor Area
  ,                                       !- Design Specification Outdoor Air Object Name
  ,                                       !- Building Unit Name
  692.06373070848;                        !- Volume {m3}

OS:Schedule:Ruleset,
  {d01cfdc0-45c1-493e-b6a6-5fee4c595e3c}, !- Handle
  heating setpoint,                       !- Name
  {3c0d80ab-3897-48d5-a3a3-9c7fb142fa01}, !- Schedule Type Limits Name
  {f7959bd4-3877-4b88-aeba-0b86d6f02817}; !- Default Day Schedule Name

OS:Schedule:Day,
  {f7959bd4-3877-4b88-aeba-0b86d6f02817}, !- Handle
  heating setpoint default day,           !- Name
  {3c0d80ab-3897-48d5-a3a3-9c7fb142fa01}, !- Schedule Type Limits Name
  ,                                       !- Interpolate to Timestep
  24,                                     !- Hour 1
  0,                                      !- Minute 1
  0;                                      !- Value Until Time 1

OS:Schedule:Rule,
  {b8a233bf-20a7-4966-8236-3b33c7228378}, !- Handle
  heating setpoint allday rule,           !- Name
  {d01cfdc0-45c1-493e-b6a6-5fee4c595e3c}, !- Schedule Ruleset Name
  0,                                      !- Rule Order
  {e26d7825-5024-4431-8dce-b85607e163bb}, !- Day Schedule Name
  Yes,                                    !- Apply Sunday
  Yes,                                    !- Apply Monday
  Yes,                                    !- Apply Tuesday
  Yes,                                    !- Apply Wednesday
  Yes,                                    !- Apply Thursday
  Yes,                                    !- Apply Friday
  Yes,                                    !- Apply Saturday
  DateRange,                              !- Date Specification Type
  1,                                      !- Start Month
  1,                                      !- Start Day
  12,                                     !- End Month
  31;                                     !- End Day

OS:Schedule:Day,
  {e26d7825-5024-4431-8dce-b85607e163bb}, !- Handle
  heating setpoint day,                   !- Name
  {3c0d80ab-3897-48d5-a3a3-9c7fb142fa01}, !- Schedule Type Limits Name
  ,                                       !- Interpolate to Timestep
  24,                                     !- Hour 1
  0,                                      !- Minute 1
  20;                                     !- Value Until Time 1

OS:Schedule:Ruleset,
  {9a41bba0-e61d-46ec-b498-8ef6e023c817}, !- Handle
  cooling setpoint,                       !- Name
  {3c0d80ab-3897-48d5-a3a3-9c7fb142fa01}, !- Schedule Type Limits Name
  {69c78afc-58bf-486e-b7f1-4a78f36f8353}; !- Default Day Schedule Name

OS:Schedule:Day,
  {69c78afc-58bf-486e-b7f1-4a78f36f8353}, !- Handle
  cooling setpoint default day,           !- Name
  {3c0d80ab-3897-48d5-a3a3-9c7fb142fa01}, !- Schedule Type Limits Name
  ,                                       !- Interpolate to Timestep
  24,                                     !- Hour 1
  0,                                      !- Minute 1
  0;                                      !- Value Until Time 1

OS:Schedule:Rule,
  {ab5287b0-594f-466e-bb2c-a85e1ead41ae}, !- Handle
  cooling setpoint allday rule,           !- Name
  {9a41bba0-e61d-46ec-b498-8ef6e023c817}, !- Schedule Ruleset Name
  0,                                      !- Rule Order
  {240dacc7-0178-42ea-a2d1-da3d5e4007ee}, !- Day Schedule Name
  Yes,                                    !- Apply Sunday
  Yes,                                    !- Apply Monday
  Yes,                                    !- Apply Tuesday
  Yes,                                    !- Apply Wednesday
  Yes,                                    !- Apply Thursday
  Yes,                                    !- Apply Friday
  Yes,                                    !- Apply Saturday
  DateRange,                              !- Date Specification Type
  1,                                      !- Start Month
  1,                                      !- Start Day
  12,                                     !- End Month
  31;                                     !- End Day

OS:Schedule:Day,
  {240dacc7-0178-42ea-a2d1-da3d5e4007ee}, !- Handle
  cooling setpoint day,                   !- Name
  {3c0d80ab-3897-48d5-a3a3-9c7fb142fa01}, !- Schedule Type Limits Name
  ,                                       !- Interpolate to Timestep
  24,                                     !- Hour 1
  0,                                      !- Minute 1
  25.5555555555556;                       !- Value Until Time 1

OS:ThermostatSetpoint:DualSetpoint,
  {ed7b2f8e-0cb4-4ede-83e8-6af2f0575d2c}, !- Handle
  conditioned space temperature setpoint, !- Name
  {d01cfdc0-45c1-493e-b6a6-5fee4c595e3c}, !- Heating Setpoint Temperature Schedule Name
  {9a41bba0-e61d-46ec-b498-8ef6e023c817}, !- Cooling Setpoint Temperature Schedule Name
  0;                                      !- Temperature Difference Between Cutout And Setpoint {deltaC}

OS:ScheduleTypeLimits,
  {3c0d80ab-3897-48d5-a3a3-9c7fb142fa01}, !- Handle
  Temperature,                            !- Name
  ,                                       !- Lower Limit Value
  ,                                       !- Upper Limit Value
  Continuous,                             !- Numeric Type
  Temperature;                            !- Unit Type

OS:Surface,
  {c75b525d-1f48-45d1-b74b-3121892260f2}, !- Handle
  Roof1,                                  !- Name
  RoofCeiling,                            !- Surface Type
  {236c6a71-770a-4c07-9cc9-fe95319997dd}, !- Construction Name
  {63a4cefe-dc7a-49a3-99a7-6ad65ab7b947}, !- Space Name
  Outdoors,                               !- Outside Boundary Condition
  ,                                       !- Outside Boundary Condition Object
  SunExposed,                             !- Sun Exposure
  WindExposed,                            !- Wind Exposure
  ,                                       !- View Factor to Ground
  ,                                       !- Number of Vertices
  -26.9347048849634, 58.0557891618865, 2.4384, !- X,Y,Z Vertex 1 {m}
  -26.9347048849634, 46.7895631136661, 8.0715130241102, !- X,Y,Z Vertex 2 {m}
  -14.3386812381136, 46.7895631136661, 8.0715130241102, !- X,Y,Z Vertex 3 {m}
  -14.3386812381136, 58.0557891618865, 2.4384; !- X,Y,Z Vertex 4 {m}

OS:AdditionalProperties,
  {d1f90ae9-1ab6-4681-9719-045734e7bc59}, !- Handle
  {c75b525d-1f48-45d1-b74b-3121892260f2}, !- Object Name
  Length,                                 !- Feature Name 1
  Double,                                 !- Feature Data Type 1
  41.325536899113608,                     !- Feature Value 1
  Width,                                  !- Feature Name 2
  Double,                                 !- Feature Data Type 2
  41.325536899113601,                     !- Feature Value 2
  Azimuth,                                !- Feature Name 3
  Integer,                                !- Feature Data Type 3
  0,                                      !- Feature Value 3
  Tilt,                                   !- Feature Name 4
  Double,                                 !- Feature Data Type 4
  0.5,                                    !- Feature Value 4
  SurfaceType,                            !- Feature Name 5
  String,                                 !- Feature Data Type 5
  Roof;                                   !- Feature Value 5

OS:ThermalZone,
  {e26107dd-3042-4352-b48a-b44cee3fd76c}, !- Handle
  attic - vented,                         !- Name
  1,                                      !- Multiplier
  ,                                       !- Ceiling Height {m}
  356.390921899745,                       !- Volume {m3}
  ,                                       !- Floor Area {m2}
  ,                                       !- Zone Inside Convection Algorithm
  ,                                       !- Zone Outside Convection Algorithm
  ,                                       !- Zone Conditioning Equipment List Name
  {e448d1a6-991d-4cbc-b17f-f8f219b45f64}, !- Zone Air Inlet Port List
  {d2c77671-0e91-4bb0-9af4-a6bda7e6bc67}, !- Zone Air Exhaust Port List
  {7104c784-26db-43f8-a134-a72ed1ef2f79}, !- Zone Air Node Name
  {ec5adae4-8ab7-48c9-9c40-edc713fdc238}, !- Zone Return Air Port List
  ,                                       !- Primary Daylighting Control Name
  ,                                       !- Fraction of Zone Controlled by Primary Daylighting Control
  ,                                       !- Secondary Daylighting Control Name
  ,                                       !- Fraction of Zone Controlled by Secondary Daylighting Control
  ,                                       !- Illuminance Map Name
  ,                                       !- Group Rendering Name
  ,                                       !- Thermostat Name
  No;                                     !- Use Ideal Air Loads

OS:Node,
  {dcdc3deb-5448-44ed-ad9b-276d9775c91c}, !- Handle
  Node 2,                                 !- Name
  {7104c784-26db-43f8-a134-a72ed1ef2f79}, !- Inlet Port
  ;                                       !- Outlet Port

OS:Connection,
  {7104c784-26db-43f8-a134-a72ed1ef2f79}, !- Handle
  {e26107dd-3042-4352-b48a-b44cee3fd76c}, !- Source Object
  11,                                     !- Outlet Port
  {dcdc3deb-5448-44ed-ad9b-276d9775c91c}, !- Target Object
  2;                                      !- Inlet Port

OS:PortList,
  {e448d1a6-991d-4cbc-b17f-f8f219b45f64}, !- Handle
  {e26107dd-3042-4352-b48a-b44cee3fd76c}; !- HVAC Component

OS:PortList,
  {d2c77671-0e91-4bb0-9af4-a6bda7e6bc67}, !- Handle
  {e26107dd-3042-4352-b48a-b44cee3fd76c}; !- HVAC Component

OS:PortList,
  {ec5adae4-8ab7-48c9-9c40-edc713fdc238}, !- Handle
  {e26107dd-3042-4352-b48a-b44cee3fd76c}; !- HVAC Component

OS:Sizing:Zone,
  {af905e14-f7ef-4b46-aa2f-ad67869151a2}, !- Handle
  {e26107dd-3042-4352-b48a-b44cee3fd76c}, !- Zone or ZoneList Name
  SupplyAirTemperature,                   !- Zone Cooling Design Supply Air Temperature Input Method
  14,                                     !- Zone Cooling Design Supply Air Temperature {C}
  11.11,                                  !- Zone Cooling Design Supply Air Temperature Difference {deltaC}
  SupplyAirTemperature,                   !- Zone Heating Design Supply Air Temperature Input Method
  40,                                     !- Zone Heating Design Supply Air Temperature {C}
  11.11,                                  !- Zone Heating Design Supply Air Temperature Difference {deltaC}
  0.0085,                                 !- Zone Cooling Design Supply Air Humidity Ratio {kg-H2O/kg-air}
  0.008,                                  !- Zone Heating Design Supply Air Humidity Ratio {kg-H2O/kg-air}
  ,                                       !- Zone Heating Sizing Factor
  ,                                       !- Zone Cooling Sizing Factor
  DesignDay,                              !- Cooling Design Air Flow Method
  ,                                       !- Cooling Design Air Flow Rate {m3/s}
  ,                                       !- Cooling Minimum Air Flow per Zone Floor Area {m3/s-m2}
  ,                                       !- Cooling Minimum Air Flow {m3/s}
  ,                                       !- Cooling Minimum Air Flow Fraction
  DesignDay,                              !- Heating Design Air Flow Method
  ,                                       !- Heating Design Air Flow Rate {m3/s}
  ,                                       !- Heating Maximum Air Flow per Zone Floor Area {m3/s-m2}
  ,                                       !- Heating Maximum Air Flow {m3/s}
  ,                                       !- Heating Maximum Air Flow Fraction
  No,                                     !- Account for Dedicated Outdoor Air System
  NeutralSupplyAir,                       !- Dedicated Outdoor Air System Control Strategy
  autosize,                               !- Dedicated Outdoor Air Low Setpoint Temperature for Design {C}
  autosize,                               !- Dedicated Outdoor Air High Setpoint Temperature for Design {C}
  Sensible Load Only No Latent Load,      !- Zone Load Sizing Method
  HumidityRatioDifference,                !- Zone Latent Cooling Design Supply Air Humidity Ratio Input Method
  ,                                       !- Zone Dehumidification Design Supply Air Humidity Ratio {kgWater/kgDryAir}
  0.005,                                  !- Zone Cooling Design Supply Air Humidity Ratio Difference {kgWater/kgDryAir}
  HumidityRatioDifference,                !- Zone Latent Heating Design Supply Air Humidity Ratio Input Method
  ,                                       !- Zone Humidification Design Supply Air Humidity Ratio {kgWater/kgDryAir}
  0.005,                                  !- Zone Humidification Design Supply Air Humidity Ratio Difference {kgWater/kgDryAir}
  ,                                       !- Zone Humidistat Dehumidification Set Point Schedule Name
  ,                                       !- Zone Humidistat Humidification Set Point Schedule Name
  ,                                       !- Design Zone Air Distribution Effectiveness in Cooling Mode
  ,                                       !- Design Zone Air Distribution Effectiveness in Heating Mode
  ,                                       !- Design Zone Secondary Recirculation Fraction {dimensionless}
  ,                                       !- Design Minimum Zone Ventilation Efficiency {dimensionless}
  Coincident;                             !- Sizing Option

OS:ZoneHVAC:EquipmentList,
  {d262bf2f-c922-4d0e-935d-e4ebdfede8bd}, !- Handle
  Zone HVAC Equipment List 2,             !- Name
  {e26107dd-3042-4352-b48a-b44cee3fd76c}; !- Thermal Zone

OS:AdditionalProperties,
  {11574502-fad4-4811-ae96-194323f2843a}, !- Handle
  {e26107dd-3042-4352-b48a-b44cee3fd76c}, !- Object Name
  ObjectType,                             !- Feature Name 1
  String,                                 !- Feature Data Type 1
  attic - vented;                         !- Feature Value 1

OS:Space,
  {63a4cefe-dc7a-49a3-99a7-6ad65ab7b947}, !- Handle
  attic - vented 1,                       !- Name
  ,                                       !- Space Type Name
  ,                                       !- Default Construction Set Name
  ,                                       !- Default Schedule Set Name
  ,                                       !- Direction of Relative North {deg}
  ,                                       !- X Origin {m}
  ,                                       !- Y Origin {m}
  ,                                       !- Z Origin {m}
  ,                                       !- Building Story Name
  {e26107dd-3042-4352-b48a-b44cee3fd76c}, !- Thermal Zone Name
  ,                                       !- Part of Total Floor Area
  ,                                       !- Design Specification Outdoor Air Object Name
  ,                                       !- Building Unit Name
  356.390921899745;                       !- Volume {m3}

OS:Material,
  {3c817ebb-e09d-4e4b-bd33-a377f9da1394}, !- Handle
  asphalt or fiberglass shingles,         !- Name