
OS:Version,
  {b7682759-6bc8-4bb8-991d-e58c4121cc9a}, !- Handle
  3.9.0;                                  !- Version Identifier

OS:SimulationControl,
  {d58c0bbf-efc2-4f17-ae5b-d6991421b53d}, !- Handle
  ,                                       !- Do Zone Sizing Calculation
  ,                                       !- Do System Sizing Calculation
  ,                                       !- Do Plant Sizing Calculation
  No;                                     !- Run Simulation for Sizing Periods

OS:Timestep,
  {f752c355-5b8c-4c53-8ff0-30ecb64a0068}, !- Handle
  1;                                      !- Number of Timesteps per Hour

OS:ShadowCalculation,
  {8f547cba-477e-4e27-aebe-fcba94a68367}, !- Handle
  PolygonClipping,                        !- Shading Calculation Method
  ,                                       !- Shading Calculation Update Frequency Method
  20,                                     !- Shading Calculation Update Frequency
  200,                                    !- Maximum Figures in Shadow Overlap Calculations
  ,                                       !- Polygon Clipping Algorithm
  512,                                    !- Pixel Counting Resolution
  ,                                       !- Sky Diffuse Modeling Algorithm
  No,                                     !- Output External Shading Calculation Results
  No,                                     !- Disable Self-Shading Within Shading Zone Groups
  No;                                     !- Disable Self-Shading From Shading Zone Groups to Other Zones

OS:SurfaceConvectionAlgorithm:Outside,
  {5b4bd5fb-8709-40ed-a367-53e80eeb73a8}, !- Handle
  DOE-2;                                  !- Algorithm

OS:SurfaceConvectionAlgorithm:Inside,
  {e1b2c5a3-7c05-4156-bd68-59cda5cfdfc5}, !- Handle
  TARP;                                   !- Algorithm

OS:ZoneCapacitanceMultiplier:ResearchSpecial,
  {8cae4bf8-1a69-477c-827d-5c56622b5898}, !- Handle
  7,                                      !- Temperature Capacity Multiplier
  15,                                     !- Humidity Capacity Multiplier
  ;                                       !- Carbon Dioxide Capacity Multiplier

OS:ConvergenceLimits,
  {c69d78f6-7097-4d14-8308-5a9bd9dd22cf}, !- Handle
  0;                                      !- Minimum System Timestep {minutes}

OS:RunPeriod,
  {567416ab-3098-4cf6-8bda-3b0feb9e5838}, !- Handle
  Run Period 1,                           !- Name
  1,                                      !- Begin Month
  1,                                      !- Begin Day of Month
  12,                                     !- End Month
  31,                                     !- End Day of Month
  ,                                       !- Use Weather File Holidays and Special Days
  ,                                       !- Use Weather File Daylight Saving Period
  ,                                       !- Apply Weekend Holiday Rule
  ,                                       !- Use Weather File Rain Indicators
  ,                                       !- Use Weather File Snow Indicators
  ;                                       !- Number of Times Runperiod to be Repeated

OS:PerformancePrecisionTradeoffs,
  {0699fcae-a441-4882-a13d-a5d74dc7c53d}, !- Handle
  ,                                       !- Use Coil Direct Solutions
  CarrollMRT;                             !- Zone Radiant Exchange Algorithm

OS:WeatherFile,
  {0e5aa718-202b-4e19-9975-d4b8ae6a484f}, !- Handle
  Buffalo Niagara Intl Ap,                !- City
  NY,                                     !- State Province Region
  USA,                                    !- Country
  TMY3,                                   !- Data Source
  725280,                                 !- WMO Number
  42.93,                                  !- Latitude {deg}
  -78.73,                                 !- Longitude {deg}
  -5,                                     !- Time Zone {hr}
  215,                                    !- Elevation {m}
  /Users/nmoore/github/urbanopt-example-geojson-project/example_project/weather/USA_NY_Buffalo-Greater.Buffalo.Intl.AP.725280_TMY3.epw, !- Url
  6B50E0FF,                               !- Checksum
  ,                                       !- Start Date Actual Year
  Sunday;                                 !- Start Day of Week

OS:YearDescription,
  {af54f199-71ff-44ff-8b09-e21070b2c405}, !- Handle
  2007,                                   !- Calendar Year
  ,                                       !- Day of Week for Start Day
  ;                                       !- Is Leap Year

OS:Site,
  {1057a4bb-1a4a-48c1-9ab4-63a22570e356}, !- Handle
  Buffalo Niagara Intl Ap_NY,             !- Name
  42.93,                                  !- Latitude {deg}
  -78.73,                                 !- Longitude {deg}
  -5,                                     !- Time Zone {hr}
  215,                                    !- Elevation {m}
  Suburbs,                                !- Terrain
  Yes;                                    !- Keep Site Location Information

OS:RunPeriodControl:DaylightSavingTime,
  {5ab76634-d1fc-4a65-a794-eb8495619d04}, !- Handle
  Mar 12,                                 !- Start Date
  Nov 5;                                  !- End Date

OS:Site:GroundTemperature:Shallow,
  {bafa9163-8872-4450-ab9d-b10129502a61}, !- Handle
  4.30207395723828,                       !- January Surface Ground Temperature {C}
  2.29327249652502,                       !- February Surface Ground Temperature {C}
  2.13240047156047,                       !- March Surface Ground Temperature {C}
  3.08567940719286,                       !- April Surface Ground Temperature {C}
  6.91256312497526,                       !- May Surface Ground Temperature {C}
  10.7216195949507,                       !- June Surface Ground Temperature {C}
  14.0238679822574,                       !- July Surface Ground Temperature {C}
  16.1157611184724,                       !- August Surface Ground Temperature {C}
  16.2934789303462,                       !- September Surface Ground Temperature {C}
  14.5920754632847,                       !- October Surface Ground Temperature {C}
  11.374036348653,                        !- November Surface Ground Temperature {C}
  7.68182621661674;                       !- December Surface Ground Temperature {C}

OS:ThermalZone,
  {595db993-773d-40d1-b355-3537d560bce7}, !- Handle
  conditioned space,                      !- Name
  1,                                      !- Multiplier
  ,                                       !- Ceiling Height {m}
  692.06373070848,                        !- Volume {m3}
  ,                                       !- Floor Area {m2}
  ,                                       !- Zone Inside Convection Algorithm
  ,                                       !- Zone Outside Convection Algorithm
  ,                                       !- Zone Conditioning Equipment List Name
  {b4af0d83-d641-4544-902c-8d081f6f68c7}, !- Zone Air Inlet Port List
  {233ecfc6-b180-42d3-b6c3-98376715ff8c}, !- Zone Air Exhaust Port List
  {c7127e56-0710-402a-8cb2-c370bc444192}, !- Zone Air Node Name
  {79cfefb2-cebf-4f0c-9817-53546df6f49b}, !- Zone Return Air Port List
  ,                                       !- Primary Daylighting Control Name
  ,                                       !- Fraction of Zone Controlled by Primary Daylighting Control
  ,                                       !- Secondary Daylighting Control Name
  ,                                       !- Fraction of Zone Controlled by Secondary Daylighting Control
  ,                                       !- Illuminance Map Name
  ,                                       !- Group Rendering Name
  {4aa49bf0-7a00-4f55-8c4a-a80800964f3f}, !- Thermostat Name
  No;                                     !- Use Ideal Air Loads

OS:Node,
  {82137915-c9bb-4bb6-b951-28d6f2140c9d}, !- Handle
  Node 1,                                 !- Name
  {c7127e56-0710-402a-8cb2-c370bc444192}, !- Inlet Port
  ;                                       !- Outlet Port

OS:Connection,
  {c7127e56-0710-402a-8cb2-c370bc444192}, !- Handle
  {595db993-773d-40d1-b355-3537d560bce7}, !- Source Object
  11,                                     !- Outlet Port
  {82137915-c9bb-4bb6-b951-28d6f2140c9d}, !- Target Object
  2;                                      !- Inlet Port

OS:PortList,
  {b4af0d83-d641-4544-902c-8d081f6f68c7}, !- Handle
  {595db993-773d-40d1-b355-3537d560bce7}, !- HVAC Component
  {42b13b0a-184d-4b3a-aa12-fb110bd1ca86}; !- Port 1

OS:PortList,
  {233ecfc6-b180-42d3-b6c3-98376715ff8c}, !- Handle
  {595db993-773d-40d1-b355-3537d560bce7}; !- HVAC Component

OS:PortList,
  {79cfefb2-cebf-4f0c-9817-53546df6f49b}, !- Handle
  {595db993-773d-40d1-b355-3537d560bce7}, !- HVAC Component
  {2464285e-9b15-428a-bef4-40e23f121b4d}; !- Port 1

OS:Sizing:Zone,
  {26bdedcd-b503-4529-90af-b09d84b9bffc}, !- Handle
  {595db993-773d-40d1-b355-3537d560bce7}, !- Zone or ZoneList Name
  SupplyAirTemperature,                   !- Zone Cooling Design Supply Air Temperature Input Method
  14,                                     !- Zone Cooling Design Supply Air Temperature {C}
  11.11,                                  !- Zone Cooling Design Supply Air Temperature Difference {deltaC}
  SupplyAirTemperature,                   !- Zone Heating Design Supply Air Temperature Input Method
  40,                                     !- Zone Heating Design Supply Air Temperature {C}
  11.11,                                  !- Zone Heating Design Supply Air Temperature Difference {deltaC}
  0.0085,                                 !- Zone Cooling Design Supply Air Humidity Ratio {kg-H2O/kg-air}
  0.008,                                  !- Zone Heating Design Supply Air Humidity Ratio {kg-H2O/kg-air}
  ,                                       !- Zone Heating Sizing Factor
  ,                                       !- Zone Cooling Sizing Factor
  DesignDay,                              !- Cooling Design Air Flow Method
  ,                                       !- Cooling Design Air Flow Rate {m3/s}
  ,                                       !- Cooling Minimum Air Flow per Zone Floor Area {m3/s-m2}
  ,                                       !- Cooling Minimum Air Flow {m3/s}
  ,                                       !- Cooling Minimum Air Flow Fraction
  DesignDay,                              !- Heating Design Air Flow Method
  ,                                       !- Heating Design Air Flow Rate {m3/s}
  ,                                       !- Heating Maximum Air Flow per Zone Floor Area {m3/s-m2}
  ,                                       !- Heating Maximum Air Flow {m3/s}
  ,                                       !- Heating Maximum Air Flow Fraction
  No,                                     !- Account for Dedicated Outdoor Air System
  NeutralSupplyAir,                       !- Dedicated Outdoor Air System Control Strategy
  autosize,                               !- Dedicated Outdoor Air Low Setpoint Temperature for Design {C}
  autosize,                               !- Dedicated Outdoor Air High Setpoint Temperature for Design {C}
  Sensible Load Only No Latent Load,      !- Zone Load Sizing Method
  HumidityRatioDifference,                !- Zone Latent Cooling Design Supply Air Humidity Ratio Input Method
  ,                                       !- Zone Dehumidification Design Supply Air Humidity Ratio {kgWater/kgDryAir}
  0.005,                                  !- Zone Cooling Design Supply Air Humidity Ratio Difference {kgWater/kgDryAir}
  HumidityRatioDifference,                !- Zone Latent Heating Design Supply Air Humidity Ratio Input Method
  ,                                       !- Zone Humidification Design Supply Air Humidity Ratio {kgWater/kgDryAir}
  0.005,                                  !- Zone Humidification Design Supply Air Humidity Ratio Difference {kgWater/kgDryAir}
  ,                                       !- Zone Humidistat Dehumidification Set Point Schedule Name
  ,                                       !- Zone Humidistat Humidification Set Point Schedule Name
  ,                                       !- Design Zone Air Distribution Effectiveness in Cooling Mode
  ,                                       !- Design Zone Air Distribution Effectiveness in Heating Mode
  ,                                       !- Design Zone Secondary Recirculation Fraction {dimensionless}
  ,                                       !- Design Minimum Zone Ventilation Efficiency {dimensionless}
  Coincident;                             !- Sizing Option

OS:ZoneHVAC:EquipmentList,
  {e1a64d1e-30ae-4acb-8c57-6a100ace1683}, !- Handle
  Zone HVAC Equipment List 1,             !- Name
  {595db993-773d-40d1-b355-3537d560bce7}, !- Thermal Zone
  ,                                       !- Load Distribution Scheme
  {90c24435-1c4f-4976-96cb-ac443b99e90b}, !- Zone Equipment 1
  1,                                      !- Zone Equipment Cooling Sequence 1
  1,                                      !- Zone Equipment Heating or No-Load Sequence 1
  {40274c64-e91c-486d-a133-383adb5c50ad}, !- Zone Equipment Sequential Cooling Fraction Schedule Name 1
  {4ef5b158-75e7-4640-8b1e-1a1011b3c2ae}, !- Zone Equipment Sequential Heating Fraction Schedule Name 1
  {d5dd91ba-d409-4b35-86fa-d1a340fa455f}, !- Zone Equipment 2
  2,                                      !- Zone Equipment Cooling Sequence 2
  2,                                      !- Zone Equipment Heating or No-Load Sequence 2
  {7d70175a-1134-4e71-bd2a-8a21191d3e5c}, !- Zone Equipment Sequential Cooling Fraction Schedule Name 2
  {3e74b64e-f2f0-4e81-a012-d79b2902abe5}; !- Zone Equipment Sequential Heating Fraction Schedule Name 2

OS:AdditionalProperties,
  {9e48b737-5078-4fd3-b67e-33efb944abd7}, !- Handle
  {595db993-773d-40d1-b355-3537d560bce7}, !- Object Name
  ObjectType,                             !- Feature Name 1
  String,                                 !- Feature Data Type 1
  conditioned space;                      !- Feature Value 1

OS:Space,
  {4891e8df-035d-4da3-9c84-cd14b4860450}, !- Handle
  conditioned space 1,                    !- Name
  ,                                       !- Space Type Name
  ,                                       !- Default Construction Set Name
  ,                                       !- Default Schedule Set Name
  ,                                       !- Direction of Relative North {deg}
  ,                                       !- X Origin {m}
  ,                                       !- Y Origin {m}
  ,                                       !- Z Origin {m}
  ,                                       !- Building Story Name
  {595db993-773d-40d1-b355-3537d560bce7}, !- Thermal Zone Name
  ,                                       !- Part of Total Floor Area
  ,                                       !- Design Specification Outdoor Air Object Name
  ,                                       !- Building Unit Name
  692.06373070848;                        !- Volume {m3}

OS:Schedule:Ruleset,
  {3d47ee74-96a2-4502-854f-6e1d65536748}, !- Handle
  heating setpoint,                       !- Name
  {08cb2d7b-1ead-4316-881f-7fdcf897db1b}, !- Schedule Type Limits Name
  {42873369-fb2f-49b2-90e4-f62378c38a88}; !- Default Day Schedule Name

OS:Schedule:Day,
  {42873369-fb2f-49b2-90e4-f62378c38a88}, !- Handle
  heating setpoint default day,           !- Name
  {08cb2d7b-1ead-4316-881f-7fdcf897db1b}, !- Schedule Type Limits Name
  ,                                       !- Interpolate to Timestep
  24,                                     !- Hour 1
  0,                                      !- Minute 1
  0;                                      !- Value Until Time 1

OS:Schedule:Rule,
  {f77f7f97-7608-44a6-a404-505d6b3818ea}, !- Handle
  heating setpoint allday rule,           !- Name
  {3d47ee74-96a2-4502-854f-6e1d65536748}, !- Schedule Ruleset Name
  0,                                      !- Rule Order
  {1fb0abba-c479-49ac-bd9a-6a637ab0f50b}, !- Day Schedule Name
  Yes,                                    !- Apply Sunday
  Yes,                                    !- Apply Monday
  Yes,                                    !- Apply Tuesday
  Yes,                                    !- Apply Wednesday
  Yes,                                    !- Apply Thursday
  Yes,                                    !- Apply Friday
  Yes,                                    !- Apply Saturday
  DateRange,                              !- Date Specification Type
  1,                                      !- Start Month
  1,                                      !- Start Day
  12,                                     !- End Month
  31;                                     !- End Day

OS:Schedule:Day,
  {1fb0abba-c479-49ac-bd9a-6a637ab0f50b}, !- Handle
  heating setpoint day,                   !- Name
  {08cb2d7b-1ead-4316-881f-7fdcf897db1b}, !- Schedule Type Limits Name
  ,                                       !- Interpolate to Timestep
  24,                                     !- Hour 1
  0,                                      !- Minute 1
  20;                                     !- Value Until Time 1

OS:Schedule:Ruleset,
  {e132c8ea-8eef-4d67-b983-c6b4a2459e04}, !- Handle
  cooling setpoint,                       !- Name
  {08cb2d7b-1ead-4316-881f-7fdcf897db1b}, !- Schedule Type Limits Name
  {967723e4-2cb5-4ba8-9711-bfb6353ab3b9}; !- Default Day Schedule Name

OS:Schedule:Day,
  {967723e4-2cb5-4ba8-9711-bfb6353ab3b9}, !- Handle
  cooling setpoint default day,           !- Name
  {08cb2d7b-1ead-4316-881f-7fdcf897db1b}, !- Schedule Type Limits Name
  ,                                       !- Interpolate to Timestep
  24,                                     !- Hour 1
  0,                                      !- Minute 1
  0;                                      !- Value Until Time 1

OS:Schedule:Rule,
  {56bd125d-589b-4c5e-b8b1-d8823c4344ad}, !- Handle
  cooling setpoint allday rule,           !- Name
  {e132c8ea-8eef-4d67-b983-c6b4a2459e04}, !- Schedule Ruleset Name
  0,                                      !- Rule Order
  {e8049b0d-0b43-4b58-b190-08d883fac3cb}, !- Day Schedule Name
  Yes,                                    !- Apply Sunday
  Yes,                                    !- Apply Monday
  Yes,                                    !- Apply Tuesday
  Yes,                                    !- Apply Wednesday
  Yes,                                    !- Apply Thursday
  Yes,                                    !- Apply Friday
  Yes,                                    !- Apply Saturday
  DateRange,                              !- Date Specification Type
  1,                                      !- Start Month
  1,                                      !- Start Day
  12,                                     !- End Month
  31;                                     !- End Day

OS:Schedule:Day,
  {e8049b0d-0b43-4b58-b190-08d883fac3cb}, !- Handle
  cooling setpoint day,                   !- Name
  {08cb2d7b-1ead-4316-881f-7fdcf897db1b}, !- Schedule Type Limits Name
  ,                                       !- Interpolate to Timestep
  24,                                     !- Hour 1
  0,                                      !- Minute 1
  25.5555555555556;                       !- Value Until Time 1

OS:ThermostatSetpoint:DualSetpoint,
  {4aa49bf0-7a00-4f55-8c4a-a80800964f3f}, !- Handle
  conditioned space temperature setpoint, !- Name
  {3d47ee74-96a2-4502-854f-6e1d65536748}, !- Heating Setpoint Temperature Schedule Name
  {e132c8ea-8eef-4d67-b983-c6b4a2459e04}, !- Cooling Setpoint Temperature Schedule Name
  0;                                      !- Temperature Difference Between Cutout And Setpoint {deltaC}

OS:ScheduleTypeLimits,
  {08cb2d7b-1ead-4316-881f-7fdcf897db1b}, !- Handle
  Temperature,                            !- Name
  ,                                       !- Lower Limit Value
  ,                                       !- Upper Limit Value
  Continuous,                             !- Numeric Type
  Temperature;                            !- Unit Type

OS:Surface,
  {9995336f-5d5b-4129-8ccd-24ead92be1c8}, !- Handle
  Roof1,                                  !- Name
  RoofCeiling,                            !- Surface Type
  {7a758a1d-437c-4965-a661-8a90acc1d03a}, !- Construction Name
  {02c23f3c-38e0-4043-bc38-682d3480c1a9}, !- Space Name
  Outdoors,                               !- Outside Boundary Condition
  ,                                       !- Outside Boundary Condition Object
  SunExposed,                             !- Sun Exposure
  WindExposed,                            !- Wind Exposure
  ,                                       !- View Factor to Ground
  ,                                       !- Number of Vertices
  -26.9347048849634, 58.0557891618865, 2.4384, !- X,Y,Z Vertex 1 {m}
  -26.9347048849634, 46.7895631136661, 8.0715130241102, !- X,Y,Z Vertex 2 {m}
  -14.3386812381136, 46.7895631136661, 8.0715130241102, !- X,Y,Z Vertex 3 {m}
  -14.3386812381136, 58.0557891618865, 2.4384; !- X,Y,Z Vertex 4 {m}

OS:AdditionalProperties,
  {b1e4b63c-9cc7-49bb-9004-42df7d4003d5}, !- Handle
  {9995336f-5d5b-4129-8ccd-24ead92be1c8}, !- Object Name
  Length,                                 !- Feature Name 1
  Double,                                 !- Feature Data Type 1
  41.325536899113608,                     !- Feature Value 1
  Width,                                  !- Feature Name 2
  Double,                                 !- Feature Data Type 2
  41.325536899113601,                     !- Feature Value 2
  Azimuth,                                !- Feature Name 3
  Integer,                                !- Feature Data Type 3
  0,                                      !- Feature Value 3
  Tilt,                                   !- Feature Name 4
  Double,                                 !- Feature Data Type 4
  0.5,                                    !- Feature Value 4
  SurfaceType,                            !- Feature Name 5
  String,                                 !- Feature Data Type 5
  Roof;                                   !- Feature Value 5

OS:ThermalZone,
  {aa5329bb-8852-4224-b4e1-b5b18066d292}, !- Handle
  attic - vented,                         !- Name
  1,                                      !- Multiplier
  ,                                       !- Ceiling Height {m}
  356.389957095237,                       !- Volume {m3}
  ,                                       !- Floor Area {m2}
  ,                                       !- Zone Inside Convection Algorithm
  ,                                       !- Zone Outside Convection Algorithm
  ,                                       !- Zone Conditioning Equipment List Name
  {474300a4-3de3-4303-881b-b4390ccc34a5}, !- Zone Air Inlet Port List
  {a797f5c8-2ddb-478c-815c-ba8c6ada0668}, !- Zone Air Exhaust Port List
  {af0c4ed1-4ffb-4695-af6f-101a75520872}, !- Zone Air Node Name
  {285b94cd-12a1-42b5-9516-1131fcd193e9}, !- Zone Return Air Port List
  ,                                       !- Primary Daylighting Control Name
  ,                                       !- Fraction of Zone Controlled by Primary Daylighting Control
  ,                                       !- Secondary Daylighting Control Name
  ,                                       !- Fraction of Zone Controlled by Secondary Daylighting Control
  ,                                       !- Illuminance Map Name
  ,                                       !- Group Rendering Name
  ,                                       !- Thermostat Name
  No;                                     !- Use Ideal Air Loads

OS:Node,
  {c9595739-1885-4fc4-8bb8-ffcbdfe4582e}, !- Handle
  Node 2,                                 !- Name
  {af0c4ed1-4ffb-4695-af6f-101a75520872}, !- Inlet Port
  ;                                       !- Outlet Port

OS:Connection,
  {af0c4ed1-4ffb-4695-af6f-101a75520872}, !- Handle
  {aa5329bb-8852-4224-b4e1-b5b18066d292}, !- Source Object
  11,                                     !- Outlet Port
  {c9595739-1885-4fc4-8bb8-ffcbdfe4582e}, !- Target Object
  2;                                      !- Inlet Port

OS:PortList,
  {474300a4-3de3-4303-881b-b4390ccc34a5}, !- Handle
  {aa5329bb-8852-4224-b4e1-b5b18066d292}; !- HVAC Component

OS:PortList,
  {a797f5c8-2ddb-478c-815c-ba8c6ada0668}, !- Handle
  {aa5329bb-8852-4224-b4e1-b5b18066d292}; !- HVAC Component

OS:PortList,
  {285b94cd-12a1-42b5-9516-1131fcd193e9}, !- Handle
  {aa5329bb-8852-4224-b4e1-b5b18066d292}; !- HVAC Component

OS:Sizing:Zone,
  {74eae8d3-c99f-4ed2-88ff-fc7a7227504e}, !- Handle
  {aa5329bb-8852-4224-b4e1-b5b18066d292}, !- Zone or ZoneList Name
  SupplyAirTemperature,                   !- Zone Cooling Design Supply Air Temperature Input Method
  14,                                     !- Zone Cooling Design Supply Air Temperature {C}
  11.11,                                  !- Zone Cooling Design Supply Air Temperature Difference {deltaC}
  SupplyAirTemperature,                   !- Zone Heating Design Supply Air Temperature Input Method
  40,                                     !- Zone Heating Design Supply Air Temperature {C}
  11.11,                                  !- Zone Heating Design Supply Air Temperature Difference {deltaC}
  0.0085,                                 !- Zone Cooling Design Supply Air Humidity Ratio {kg-H2O/kg-air}
  0.008,                                  !- Zone Heating Design Supply Air Humidity Ratio {kg-H2O/kg-air}
  ,                                       !- Zone Heating Sizing Factor
  ,                                       !- Zone Cooling Sizing Factor
  DesignDay,                              !- Cooling Design Air Flow Method
  ,                                       !- Cooling Design Air Flow Rate {m3/s}
  ,                                       !- Cooling Minimum Air Flow per Zone Floor Area {m3/s-m2}
  ,                                       !- Cooling Minimum Air Flow {m3/s}
  ,                                       !- Cooling Minimum Air Flow Fraction
  DesignDay,                              !- Heating Design Air Flow Method
  ,                                       !- Heating Design Air Flow Rate {m3/s}
  ,                                       !- Heating Maximum Air Flow per Zone Floor Area {m3/s-m2}
  ,                                       !- Heating Maximum Air Flow {m3/s}
  ,                                       !- Heating Maximum Air Flow Fraction
  No,                                     !- Account for Dedicated Outdoor Air System
  NeutralSupplyAir,                       !- Dedicated Outdoor Air System Control Strategy
  autosize,                               !- Dedicated Outdoor Air Low Setpoint Temperature for Design {C}
  autosize,                               !- Dedicated Outdoor Air High Setpoint Temperature for Design {C}
  Sensible Load Only No Latent Load,      !- Zone Load Sizing Method
  HumidityRatioDifference,                !- Zone Latent Cooling Design Supply Air Humidity Ratio Input Method
  ,                                       !- Zone Dehumidification Design Supply Air Humidity Ratio {kgWater/kgDryAir}
  0.005,                                  !- Zone Cooling Design Supply Air Humidity Ratio Difference {kgWater/kgDryAir}
  HumidityRatioDifference,                !- Zone Latent Heating Design Supply Air Humidity Ratio Input Method
  ,                                       !- Zone Humidification Design Supply Air Humidity Ratio {kgWater/kgDryAir}
  0.005,                                  !- Zone Humidification Design Supply Air Humidity Ratio Difference {kgWater/kgDryAir}
  ,                                       !- Zone Humidistat Dehumidification Set Point Schedule Name
  ,                                       !- Zone Humidistat Humidification Set Point Schedule Name
  ,                                       !- Design Zone Air Distribution Effectiveness in Cooling Mode
  ,                                       !- Design Zone Air Distribution Effectiveness in Heating Mode
  ,                                       !- Design Zone Secondary Recirculation Fraction {dimensionless}
  ,                                       !- Design Minimum Zone Ventilation Efficiency {dimensionless}
  Coincident;                             !- Sizing Option

OS:ZoneHVAC:EquipmentList,
  {600b4e19-a625-489a-83f9-3a345b829603}, !- Handle
  Zone HVAC Equipment List 2,             !- Name
  {aa5329bb-8852-4224-b4e1-b5b18066d292}; !- Thermal Zone

OS:AdditionalProperties,
  {191e384a-a939-4c11-a709-95b8ec56606c}, !- Handle
  {aa5329bb-8852-4224-b4e1-b5b18066d292}, !- Object Name
  ObjectType,                             !- Feature Name 1
  String,                                 !- Feature Data Type 1
  attic - vented;                         !- Feature Value 1

OS:Space,
  {02c23f3c-38e0-4043-bc38-682d3480c1a9}, !- Handle
  attic - vented 1,                       !- Name
  ,                                       !- Space Type Name
  ,                                       !- Default Construction Set Name
  ,                                       !- Default Schedule Set Name
  ,                                       !- Direction of Relative North {deg}
  ,                                       !- X Origin {m}
  ,                                       !- Y Origin {m}
  ,                                       !- Z Origin {m}
  ,                                       !- Building Story Name
  {aa5329bb-8852-4224-b4e1-b5b18066d292}, !- Thermal Zone Name
  ,                                       !- Part of Total Floor Area
  ,                                       !- Design Specification Outdoor Air Object Name
  ,                                       !- Building Unit Name
  356.389957095237;                       !- Volume {m3}

OS:Material,
  {abe3b5eb-21ed-439a-b330-a7e2cd613006}, !- Handle
  asphalt or fiberglass shingles,         !- Name