
OS:Version,
  {6be5b8a0-f211-47d0-abcc-254145559fc2}, !- Handle
  3.10.0;                                 !- Version Identifier

OS:SimulationControl,
  {0caebb61-639e-4eb5-a171-b978e9b6fcee}, !- Handle
  ,                                       !- Do Zone Sizing Calculation
  ,                                       !- Do System Sizing Calculation
  ,                                       !- Do Plant Sizing Calculation
  No;                                     !- Run Simulation for Sizing Periods

OS:Timestep,
  {22de9f49-0ab2-45ce-a9b5-117b1862b36a}, !- Handle
  1;                                      !- Number of Timesteps per Hour

OS:ShadowCalculation,
  {c719c175-e150-4c06-baff-2e6f712a11f8}, !- Handle
  PolygonClipping,                        !- Shading Calculation Method
  ,                                       !- Shading Calculation Update Frequency Method
  20,                                     !- Shading Calculation Update Frequency
  200,                                    !- Maximum Figures in Shadow Overlap Calculations
  ,                                       !- Polygon Clipping Algorithm
  512,                                    !- Pixel Counting Resolution
  ,                                       !- Sky Diffuse Modeling Algorithm
  No,                                     !- Output External Shading Calculation Results
  No,                                     !- Disable Self-Shading Within Shading Zone Groups
  No;                                     !- Disable Self-Shading From Shading Zone Groups to Other Zones

OS:SurfaceConvectionAlgorithm:Outside,
  {12470f1b-f6ee-47b9-8398-f9a75c9a2356}, !- Handle
  DOE-2;                                  !- Algorithm

OS:SurfaceConvectionAlgorithm:Inside,
  {18ff56a4-e067-41f1-9874-5d2fcfd4794a}, !- Handle
  TARP;                                   !- Algorithm

OS:ZoneCapacitanceMultiplier:ResearchSpecial,
  {73f278c0-361f-4417-ab1c-f1f8956daf7e}, !- Handle
  7,                                      !- Temperature Capacity Multiplier
  15,                                     !- Humidity Capacity Multiplier
  ;                                       !- Carbon Dioxide Capacity Multiplier

OS:ConvergenceLimits,
  {76f78219-6ccf-447f-ba76-99b0920c7e1a}, !- Handle
  0;                                      !- Minimum System Timestep {minutes}

OS:RunPeriod,
  {c6354069-21e1-4db1-b478-a6fb5210c582}, !- Handle
  Run Period 1,                           !- Name
  1,                                      !- Begin Month
  1,                                      !- Begin Day of Month
  12,                                     !- End Month
  31,                                     !- End Day of Month
  ,                                       !- Use Weather File Holidays and Special Days
  ,                                       !- Use Weather File Daylight Saving Period
  ,                                       !- Apply Weekend Holiday Rule
  ,                                       !- Use Weather File Rain Indicators
  ,                                       !- Use Weather File Snow Indicators
  ;                                       !- Number of Times Runperiod to be Repeated

OS:PerformancePrecisionTradeoffs,
  {94fadf99-b571-4374-8ab8-c877398ede24}, !- Handle
  ,                                       !- Use Coil Direct Solutions
  CarrollMRT;                             !- Zone Radiant Exchange Algorithm

OS:WeatherFile,
  {ee6d8843-d926-4ff0-bb93-bbef382391e1}, !- Handle
  Buffalo Niagara Intl Ap,                !- City
  NY,                                     !- State Province Region
  USA,                                    !- Country
  TMY3,                                   !- Data Source
  725280,                                 !- WMO Number
  42.93,                                  !- Latitude {deg}
  -78.73,                                 !- Longitude {deg}
  -5,                                     !- Time Zone {hr}
  215,                                    !- Elevation {m}
  /Users/nmoore/github/urbanopt-example-geojson-project/example_project/weather/USA_NY_Buffalo-Greater.Buffalo.Intl.AP.725280_TMY3.epw, !- Url
  6B50E0FF,                               !- Checksum
  ,                                       !- Start Date Actual Year
  Sunday;                                 !- Start Day of Week

OS:YearDescription,
  {c024cd31-d306-483f-b20d-7c11da2d7bba}, !- Handle
  2007,                                   !- Calendar Year
  ,                                       !- Day of Week for Start Day
  ;                                       !- Is Leap Year

OS:Site,
  {4e95141c-9eb8-4680-a846-abc37e715807}, !- Handle
  Buffalo Niagara Intl Ap_NY,             !- Name
  42.93,                                  !- Latitude {deg}
  -78.73,                                 !- Longitude {deg}
  -5,                                     !- Time Zone {hr}
  215,                                    !- Elevation {m}
  Suburbs,                                !- Terrain
  Yes;                                    !- Keep Site Location Information

OS:RunPeriodControl:DaylightSavingTime,
  {8f46b3e8-5765-4d98-a453-e45496c72fbf}, !- Handle
  Mar 12,                                 !- Start Date
  Nov 5;                                  !- End Date

OS:Site:GroundTemperature:Shallow,
  {f3ff67c4-1d6b-4780-911d-0a0ecdd1b6fe}, !- Handle
  4.30207395723828,                       !- January Surface Ground Temperature {C}
  2.29327249652502,                       !- February Surface Ground Temperature {C}
  2.13240047156047,                       !- March Surface Ground Temperature {C}
  3.08567940719286,                       !- April Surface Ground Temperature {C}
  6.91256312497526,                       !- May Surface Ground Temperature {C}
  10.7216195949507,                       !- June Surface Ground Temperature {C}
  14.0238679822574,                       !- July Surface Ground Temperature {C}
  16.1157611184724,                       !- August Surface Ground Temperature {C}
  16.2934789303462,                       !- September Surface Ground Temperature {C}
  14.5920754632847,                       !- October Surface Ground Temperature {C}
  11.374036348653,                        !- November Surface Ground Temperature {C}
  7.68182621661674;                       !- December Surface Ground Temperature {C}

OS:ThermalZone,
  {e2a4952b-558b-4af8-8b71-f956112d8b21}, !- Handle
  conditioned space,                      !- Name
  1,                                      !- Multiplier
  ,                                       !- Ceiling Height {m}
  692.06373070848,                        !- Volume {m3}
  ,                                       !- Floor Area {m2}
  ,                                       !- Zone Inside Convection Algorithm
  ,                                       !- Zone Outside Convection Algorithm
  ,                                       !- Zone Conditioning Equipment List Name
  {7948da8b-6498-4266-96fa-a6e61e68a6c5}, !- Zone Air Inlet Port List
  {bc5722f1-acd9-494f-9d49-54b68459344c}, !- Zone Air Exhaust Port List
  {528782a8-97db-4492-88f5-a5558633d320}, !- Zone Air Node Name
  {bc0ca724-7239-432d-b3e1-9d0d1435a66a}, !- Zone Return Air Port List
  ,                                       !- Primary Daylighting Control Name
  ,                                       !- Fraction of Zone Controlled by Primary Daylighting Control
  ,                                       !- Secondary Daylighting Control Name
  ,                                       !- Fraction of Zone Controlled by Secondary Daylighting Control
  ,                                       !- Illuminance Map Name
  ,                                       !- Group Rendering Name
  {44825daa-ceee-407e-9ab6-8b2d18293d40}, !- Thermostat Name
  No;                                     !- Use Ideal Air Loads

OS:Node,
  {bf31217d-793f-4f08-8caa-a091ebd1240b}, !- Handle
  Node 1,                                 !- Name
  {528782a8-97db-4492-88f5-a5558633d320}, !- Inlet Port
  ;                                       !- Outlet Port

OS:Connection,
  {528782a8-97db-4492-88f5-a5558633d320}, !- Handle
  {e2a4952b-558b-4af8-8b71-f956112d8b21}, !- Source Object
  11,                                     !- Outlet Port
  {bf31217d-793f-4f08-8caa-a091ebd1240b}, !- Target Object
  2;                                      !- Inlet Port

OS:PortList,
  {7948da8b-6498-4266-96fa-a6e61e68a6c5}, !- Handle
  {e2a4952b-558b-4af8-8b71-f956112d8b21}, !- HVAC Component
  {d2598c3d-3a68-4a14-bb06-7c1099de4a76}; !- Port 1

OS:PortList,
  {bc5722f1-acd9-494f-9d49-54b68459344c}, !- Handle
  {e2a4952b-558b-4af8-8b71-f956112d8b21}; !- HVAC Component

OS:PortList,
  {bc0ca724-7239-432d-b3e1-9d0d1435a66a}, !- Handle
  {e2a4952b-558b-4af8-8b71-f956112d8b21}, !- HVAC Component
  {cf869666-5f7e-4367-bf50-61db607d3d62}; !- Port 1

OS:Sizing:Zone,
  {45eb1774-65f0-4a2b-abe8-c09179e8b2fa}, !- Handle
  {e2a4952b-558b-4af8-8b71-f956112d8b21}, !- Zone or ZoneList Name
  SupplyAirTemperature,                   !- Zone Cooling Design Supply Air Temperature Input Method
  14,                                     !- Zone Cooling Design Supply Air Temperature {C}
  11.11,                                  !- Zone Cooling Design Supply Air Temperature Difference {deltaC}
  SupplyAirTemperature,                   !- Zone Heating Design Supply Air Temperature Input Method
  40,                                     !- Zone Heating Design Supply Air Temperature {C}
  11.11,                                  !- Zone Heating Design Supply Air Temperature Difference {deltaC}
  0.0085,                                 !- Zone Cooling Design Supply Air Humidity Ratio {kg-H2O/kg-air}
  0.008,                                  !- Zone Heating Design Supply Air Humidity Ratio {kg-H2O/kg-air}
  ,                                       !- Zone Heating Sizing Factor
  ,                                       !- Zone Cooling Sizing Factor
  DesignDay,                              !- Cooling Design Air Flow Method
  ,                                       !- Cooling Design Air Flow Rate {m3/s}
  ,                                       !- Cooling Minimum Air Flow per Zone Floor Area {m3/s-m2}
  ,                                       !- Cooling Minimum Air Flow {m3/s}
  ,                                       !- Cooling Minimum Air Flow Fraction
  DesignDay,                              !- Heating Design Air Flow Method
  ,                                       !- Heating Design Air Flow Rate {m3/s}
  ,                                       !- Heating Maximum Air Flow per Zone Floor Area {m3/s-m2}
  ,                                       !- Heating Maximum Air Flow {m3/s}
  ,                                       !- Heating Maximum Air Flow Fraction
  No,                                     !- Account for Dedicated Outdoor Air System
  NeutralSupplyAir,                       !- Dedicated Outdoor Air System Control Strategy
  autosize,                               !- Dedicated Outdoor Air Low Setpoint Temperature for Design {C}
  autosize,                               !- Dedicated Outdoor Air High Setpoint Temperature for Design {C}
  Sensible Load Only No Latent Load,      !- Zone Load Sizing Method
  HumidityRatioDifference,                !- Zone Latent Cooling Design Supply Air Humidity Ratio Input Method
  ,                                       !- Zone Dehumidification Design Supply Air Humidity Ratio {kgWater/kgDryAir}
  0.005,                                  !- Zone Cooling Design Supply Air Humidity Ratio Difference {kgWater/kgDryAir}
  HumidityRatioDifference,                !- Zone Latent Heating Design Supply Air Humidity Ratio Input Method
  ,                                       !- Zone Humidification Design Supply Air Humidity Ratio {kgWater/kgDryAir}
  0.005,                                  !- Zone Humidification Design Supply Air Humidity Ratio Difference {kgWater/kgDryAir}
  ,                                       !- Zone Humidistat Dehumidification Set Point Schedule Name
  ,                                       !- Zone Humidistat Humidification Set Point Schedule Name
  ,                                       !- Design Zone Air Distribution Effectiveness in Cooling Mode
  ,                                       !- Design Zone Air Distribution Effectiveness in Heating Mode
  ,                                       !- Design Zone Secondary Recirculation Fraction {dimensionless}
  ,                                       !- Design Minimum Zone Ventilation Efficiency {dimensionless}
  Coincident;                             !- Sizing Option

OS:ZoneHVAC:EquipmentList,
  {e3993c6b-2c74-4d2b-9c14-baa0d4e3fe14}, !- Handle
  Zone HVAC Equipment List 1,             !- Name
  {e2a4952b-558b-4af8-8b71-f956112d8b21}, !- Thermal Zone
  ,                                       !- Load Distribution Scheme
  {8d9fec96-874d-4546-b5e9-2a790f3d5d35}, !- Zone Equipment 1
  1,                                      !- Zone Equipment Cooling Sequence 1
  1,                                      !- Zone Equipment Heating or No-Load Sequence 1
  {fba70d6c-162e-44b1-83b2-f853dfa14fb7}, !- Zone Equipment Sequential Cooling Fraction Schedule Name 1
  {dc69f47d-8f6d-4505-ba89-f9f89a106caf}; !- Zone Equipment Sequential Heating Fraction Schedule Name 1

OS:AdditionalProperties,
  {385b92ef-11d4-4016-a8c4-eec9579fc260}, !- Handle
  {e2a4952b-558b-4af8-8b71-f956112d8b21}, !- Object Name
  ObjectType,                             !- Feature Name 1
  String,                                 !- Feature Data Type 1
  conditioned space;                      !- Feature Value 1

OS:Space,
  {bee68a5f-6333-4aa2-b97c-b9a5db5ff9f4}, !- Handle
  conditioned space 1,                    !- Name
  ,                                       !- Space Type Name
  ,                                       !- Default Construction Set Name
  ,                                       !- Default Schedule Set Name
  ,                                       !- Direction of Relative North {deg}
  ,                                       !- X Origin {m}
  ,                                       !- Y Origin {m}
  ,                                       !- Z Origin {m}
  ,                                       !- Building Story Name
  {e2a4952b-558b-4af8-8b71-f956112d8b21}, !- Thermal Zone Name
  ,                                       !- Part of Total Floor Area
  ,                                       !- Design Specification Outdoor Air Object Name
  ,                                       !- Building Unit Name
  692.06373070848;                        !- Volume {m3}

OS:Schedule:Ruleset,
  {4611c308-35e6-48dd-ada5-3f6482f73333}, !- Handle
  heating setpoint,                       !- Name
  {f4f2731a-9656-45ff-9b5d-002257de474a}, !- Schedule Type Limits Name
  {33d3c45a-7aaf-408c-a635-2fd17d8f8b1a}; !- Default Day Schedule Name

OS:Schedule:Day,
  {33d3c45a-7aaf-408c-a635-2fd17d8f8b1a}, !- Handle
  heating setpoint default day,           !- Name
  {f4f2731a-9656-45ff-9b5d-002257de474a}, !- Schedule Type Limits Name
  ,                                       !- Interpolate to Timestep
  24,                                     !- Hour 1
  0,                                      !- Minute 1
  0;                                      !- Value Until Time 1

OS:Schedule:Rule,
  {23500687-2b19-433a-be30-4129cdb039ba}, !- Handle
  heating setpoint allday rule,           !- Name
  {4611c308-35e6-48dd-ada5-3f6482f73333}, !- Schedule Ruleset Name
  0,                                      !- Rule Order
  {01b9be3e-c176-4c23-b5f9-a00fac3be6e3}, !- Day Schedule Name
  Yes,                                    !- Apply Sunday
  Yes,                                    !- Apply Monday
  Yes,                                    !- Apply Tuesday
  Yes,                                    !- Apply Wednesday
  Yes,                                    !- Apply Thursday
  Yes,                                    !- Apply Friday
  Yes,                                    !- Apply Saturday
  DateRange,                              !- Date Specification Type
  1,                                      !- Start Month
  1,                                      !- Start Day
  12,                                     !- End Month
  31;                                     !- End Day

OS:Schedule:Day,
  {01b9be3e-c176-4c23-b5f9-a00fac3be6e3}, !- Handle
  heating setpoint day,                   !- Name
  {f4f2731a-9656-45ff-9b5d-002257de474a}, !- Schedule Type Limits Name
  ,                                       !- Interpolate to Timestep
  24,                                     !- Hour 1
  0,                                      !- Minute 1
  20;                                     !- Value Until Time 1

OS:Schedule:Ruleset,
  {6db953b4-83ee-4000-bdd9-59002155c898}, !- Handle
  cooling setpoint,                       !- Name
  {f4f2731a-9656-45ff-9b5d-002257de474a}, !- Schedule Type Limits Name
  {1b8e6c21-848b-4307-8cc4-d6095542b4c6}; !- Default Day Schedule Name

OS:Schedule:Day,
  {1b8e6c21-848b-4307-8cc4-d6095542b4c6}, !- Handle
  cooling setpoint default day,           !- Name
  {f4f2731a-9656-45ff-9b5d-002257de474a}, !- Schedule Type Limits Name
  ,                                       !- Interpolate to Timestep
  24,                                     !- Hour 1
  0,                                      !- Minute 1
  0;                                      !- Value Until Time 1

OS:Schedule:Rule,
  {d2f21149-2592-49f6-bc13-e4392df1c5f2}, !- Handle
  cooling setpoint allday rule,           !- Name
  {6db953b4-83ee-4000-bdd9-59002155c898}, !- Schedule Ruleset Name
  0,                                      !- Rule Order
  {4af9d22c-3426-4d5a-895a-162085cf4839}, !- Day Schedule Name
  Yes,                                    !- Apply Sunday
  Yes,                                    !- Apply Monday
  Yes,                                    !- Apply Tuesday
  Yes,                                    !- Apply Wednesday
  Yes,                                    !- Apply Thursday
  Yes,                                    !- Apply Friday
  Yes,                                    !- Apply Saturday
  DateRange,                              !- Date Specification Type
  1,                                      !- Start Month
  1,                                      !- Start Day
  12,                                     !- End Month
  31;                                     !- End Day

OS:Schedule:Day,
  {4af9d22c-3426-4d5a-895a-162085cf4839}, !- Handle
  cooling setpoint day,                   !- Name
  {f4f2731a-9656-45ff-9b5d-002257de474a}, !- Schedule Type Limits Name
  ,                                       !- Interpolate to Timestep
  24,                                     !- Hour 1
  0,                                      !- Minute 1
  25.5555555555556;                       !- Value Until Time 1

OS:ThermostatSetpoint:DualSetpoint,
  {44825daa-ceee-407e-9ab6-8b2d18293d40}, !- Handle
  conditioned space temperature setpoint, !- Name
  {4611c308-35e6-48dd-ada5-3f6482f73333}, !- Heating Setpoint Temperature Schedule Name
  {6db953b4-83ee-4000-bdd9-59002155c898}, !- Cooling Setpoint Temperature Schedule Name
  0;                                      !- Temperature Difference Between Cutout And Setpoint {deltaC}

OS:ScheduleTypeLimits,
  {f4f2731a-9656-45ff-9b5d-002257de474a}, !- Handle
  Temperature,                            !- Name
  ,                                       !- Lower Limit Value
  ,                                       !- Upper Limit Value
  Continuous,                             !- Numeric Type
  Temperature;                            !- Unit Type

OS:Surface,
  {5a2e810e-970b-4526-8cc3-b77401620d49}, !- Handle
  Roof1,                                  !- Name
  RoofCeiling,                            !- Surface Type
  {b0e3ca0a-44c3-4d91-b45e-c64e8a3f5604}, !- Construction Name
  {8e3376e3-51bf-4f76-9f12-f2e61d3f77c8}, !- Space Name
  Outdoors,                               !- Outside Boundary Condition
  ,                                       !- Outside Boundary Condition Object
  SunExposed,                             !- Sun Exposure
  WindExposed,                            !- Wind Exposure
  ,                                       !- View Factor to Ground
  ,                                       !- Number of Vertices
  -26.9347048849634, 58.0557891618865, 2.4384, !- X,Y,Z Vertex 1 {m}
  -26.9347048849634, 46.7895631136661, 8.0715130241102, !- X,Y,Z Vertex 2 {m}
  -14.3386812381136, 46.7895631136661, 8.0715130241102, !- X,Y,Z Vertex 3 {m}
  -14.3386812381136, 58.0557891618865, 2.4384; !- X,Y,Z Vertex 4 {m}

OS:AdditionalProperties,
  {2c6377fb-be74-4602-834b-27baefd98769}, !- Handle
  {5a2e810e-970b-4526-8cc3-b77401620d49}, !- Object Name
  Length,                                 !- Feature Name 1
  Double,                                 !- Feature Data Type 1
  41.325536899113608,                     !- Feature Value 1
  Width,                                  !- Feature Name 2
  Double,                                 !- Feature Data Type 2
  41.325536899113601,                     !- Feature Value 2
  Azimuth,                                !- Feature Name 3
  Integer,                                !- Feature Data Type 3
  0,                                      !- Feature Value 3
  Tilt,                                   !- Feature Name 4
  Double,                                 !- Feature Data Type 4
  0.5,                                    !- Feature Value 4
  SurfaceType,                            !- Feature Name 5
  String,                                 !- Feature Data Type 5
  Roof;                                   !- Feature Value 5

OS:ThermalZone,
  {770cd05a-118b-4acc-9d54-ef72a40c01d0}, !- Handle
  attic - vented,                         !- Name
  1,                                      !- Multiplier
  ,                                       !- Ceiling Height {m}
  356.390921899745,                       !- Volume {m3}
  ,                                       !- Floor Area {m2}
  ,                                       !- Zone Inside Convection Algorithm
  ,                                       !- Zone Outside Convection Algorithm
  ,                                       !- Zone Conditioning Equipment List Name
  {085b0085-09b2-4465-8517-217ef4b88e0c}, !- Zone Air Inlet Port List
  {635ca352-62ef-453e-ac3c-b72197d75681}, !- Zone Air Exhaust Port List
  {2fd9d549-bf5e-4be5-8072-3b7ec56071f6}, !- Zone Air Node Name
  {eeb5b911-1943-419d-98ea-dc246773af1a}, !- Zone Return Air Port List
  ,                                       !- Primary Daylighting Control Name
  ,                                       !- Fraction of Zone Controlled by Primary Daylighting Control
  ,                                       !- Secondary Daylighting Control Name
  ,                                       !- Fraction of Zone Controlled by Secondary Daylighting Control
  ,                                       !- Illuminance Map Name
  ,                                       !- Group Rendering Name
  ,                                       !- Thermostat Name
  No;                                     !- Use Ideal Air Loads

OS:Node,
  {88c954d3-e9fc-4cc3-9c8a-06a47f9581c3}, !- Handle
  Node 2,                                 !- Name
  {2fd9d549-bf5e-4be5-8072-3b7ec56071f6}, !- Inlet Port
  ;                                       !- Outlet Port

OS:Connection,
  {2fd9d549-bf5e-4be5-8072-3b7ec56071f6}, !- Handle
  {770cd05a-118b-4acc-9d54-ef72a40c01d0}, !- Source Object
  11,                                     !- Outlet Port
  {88c954d3-e9fc-4cc3-9c8a-06a47f9581c3}, !- Target Object
  2;                                      !- Inlet Port

OS:PortList,
  {085b0085-09b2-4465-8517-217ef4b88e0c}, !- Handle
  {770cd05a-118b-4acc-9d54-ef72a40c01d0}; !- HVAC Component

OS:PortList,
  {635ca352-62ef-453e-ac3c-b72197d75681}, !- Handle
  {770cd05a-118b-4acc-9d54-ef72a40c01d0}; !- HVAC Component

OS:PortList,
  {eeb5b911-1943-419d-98ea-dc246773af1a}, !- Handle
  {770cd05a-118b-4acc-9d54-ef72a40c01d0}; !- HVAC Component

OS:Sizing:Zone,
  {f0551d37-aa4c-45c7-b0f2-098e9d6e5510}, !- Handle
  {770cd05a-118b-4acc-9d54-ef72a40c01d0}, !- Zone or ZoneList Name
  SupplyAirTemperature,                   !- Zone Cooling Design Supply Air Temperature Input Method
  14,                                     !- Zone Cooling Design Supply Air Temperature {C}
  11.11,                                  !- Zone Cooling Design Supply Air Temperature Difference {deltaC}
  SupplyAirTemperature,                   !- Zone Heating Design Supply Air Temperature Input Method
  40,                                     !- Zone Heating Design Supply Air Temperature {C}
  11.11,                                  !- Zone Heating Design Supply Air Temperature Difference {deltaC}
  0.0085,                                 !- Zone Cooling Design Supply Air Humidity Ratio {kg-H2O/kg-air}
  0.008,                                  !- Zone Heating Design Supply Air Humidity Ratio {kg-H2O/kg-air}
  ,                                       !- Zone Heating Sizing Factor
  ,                                       !- Zone Cooling Sizing Factor
  DesignDay,                              !- Cooling Design Air Flow Method
  ,                                       !- Cooling Design Air Flow Rate {m3/s}
  ,                                       !- Cooling Minimum Air Flow per Zone Floor Area {m3/s-m2}
  ,                                       !- Cooling Minimum Air Flow {m3/s}
  ,                                       !- Cooling Minimum Air Flow Fraction
  DesignDay,                              !- Heating Design Air Flow Method
  ,                                       !- Heating Design Air Flow Rate {m3/s}
  ,                                       !- Heating Maximum Air Flow per Zone Floor Area {m3/s-m2}
  ,                                       !- Heating Maximum Air Flow {m3/s}
  ,                                       !- Heating Maximum Air Flow Fraction
  No,                                     !- Account for Dedicated Outdoor Air System
  NeutralSupplyAir,                       !- Dedicated Outdoor Air System Control Strategy
  autosize,                               !- Dedicated Outdoor Air Low Setpoint Temperature for Design {C}
  autosize,                               !- Dedicated Outdoor Air High Setpoint Temperature for Design {C}
  Sensible Load Only No Latent Load,      !- Zone Load Sizing Method
  HumidityRatioDifference,                !- Zone Latent Cooling Design Supply Air Humidity Ratio Input Method
  ,                                       !- Zone Dehumidification Design Supply Air Humidity Ratio {kgWater/kgDryAir}
  0.005,                                  !- Zone Cooling Design Supply Air Humidity Ratio Difference {kgWater/kgDryAir}
  HumidityRatioDifference,                !- Zone Latent Heating Design Supply Air Humidity Ratio Input Method
  ,                                       !- Zone Humidification Design Supply Air Humidity Ratio {kgWater/kgDryAir}
  0.005,                                  !- Zone Humidification Design Supply Air Humidity Ratio Difference {kgWater/kgDryAir}
  ,                                       !- Zone Humidistat Dehumidification Set Point Schedule Name
  ,                                       !- Zone Humidistat Humidification Set Point Schedule Name
  ,                                       !- Design Zone Air Distribution Effectiveness in Cooling Mode
  ,                                       !- Design Zone Air Distribution Effectiveness in Heating Mode
  ,                                       !- Design Zone Secondary Recirculation Fraction {dimensionless}
  ,                                       !- Design Minimum Zone Ventilation Efficiency {dimensionless}
  Coincident;                             !- Sizing Option

OS:ZoneHVAC:EquipmentList,
  {b93f9ca8-0254-4a65-b3b4-3b22abde7801}, !- Handle
  Zone HVAC Equipment List 2,             !- Name
  {770cd05a-118b-4acc-9d54-ef72a40c01d0}; !- Thermal Zone

OS:AdditionalProperties,
  {5bbac6be-72b5-4cb9-a745-ed0374578884}, !- Handle
  {770cd05a-118b-4acc-9d54-ef72a40c01d0}, !- Object Name
  ObjectType,                             !- Feature Name 1
  String,                                 !- Feature Data Type 1
  attic - vented;                         !- Feature Value 1

OS:Space,
  {8e3376e3-51bf-4f76-9f12-f2e61d3f77c8}, !- Handle
  attic - vented 1,                       !- Name
  ,                                       !- Space Type Name
  ,                                       !- Default Construction Set Name
  ,                                       !- Default Schedule Set Name
  ,                                       !- Direction of Relative North {deg}
  ,                                       !- X Origin {m}
  ,                                       !- Y Origin {m}
  ,                                       !- Z Origin {m}
  ,                                       !- Building Story Name
  {770cd05a-118b-4acc-9d54-ef72a40c01d0}, !- Thermal Zone Name
  ,                                       !- Part of Total Floor Area
  ,                                       !- Design Specification Outdoor Air Object Name
  ,                                       !- Building Unit Name
  356.390921899745;                       !- Volume {m3}

OS:Material,
  {b7f90d69-30e1-490f-8112-a25140ef652c}, !- Handle
  asphalt or fiberglass shingles,         !- Name
  Rough,                                  !- Roughness
  0.00635,                                !- Thickness {m}
  0.162714,                               !- Conductivity {W/m-K}
  1121.4,                                 !- Density {kg/m3}
  1465.45,                                !- Specific Heat {J/kg-K}
  0.9,                                    !- Thermal Absorptance
  0.85,                                   !- Solar Absorptance