
OS:Version,
  {913fbe4c-9c11-4adb-9a18-1af3a94cc5a9}, !- Handle
  3.9.0;                                  !- Version Identifier

OS:SimulationControl,
  {a1b578ed-2f6b-4182-9ac3-136493b7841d}, !- Handle
  ,                                       !- Do Zone Sizing Calculation
  ,                                       !- Do System Sizing Calculation
  ,                                       !- Do Plant Sizing Calculation
  No;                                     !- Run Simulation for Sizing Periods

OS:Timestep,
  {7a29e667-64a8-4f44-a30b-e70128668bbd}, !- Handle
  1;                                      !- Number of Timesteps per Hour

OS:ShadowCalculation,
  {c1977b75-bc15-48fe-86df-bae3a2df6c06}, !- Handle
  PolygonClipping,                        !- Shading Calculation Method
  ,                                       !- Shading Calculation Update Frequency Method
  20,                                     !- Shading Calculation Update Frequency
  200,                                    !- Maximum Figures in Shadow Overlap Calculations
  ,                                       !- Polygon Clipping Algorithm
  512,                                    !- Pixel Counting Resolution
  ,                                       !- Sky Diffuse Modeling Algorithm
  No,                                     !- Output External Shading Calculation Results
  No,                                     !- Disable Self-Shading Within Shading Zone Groups
  No;                                     !- Disable Self-Shading From Shading Zone Groups to Other Zones

OS:SurfaceConvectionAlgorithm:Outside,
  {3936881d-bfe8-4680-8150-8feccb39ec3d}, !- Handle
  DOE-2;                                  !- Algorithm

OS:SurfaceConvectionAlgorithm:Inside,
  {3e4134fc-51cb-4fee-808a-79425c5a4225}, !- Handle
  TARP;                                   !- Algorithm

OS:ZoneCapacitanceMultiplier:ResearchSpecial,
  {87819633-7980-4a37-9cda-74005ad4083b}, !- Handle
  7,                                      !- Temperature Capacity Multiplier
  15,                                     !- Humidity Capacity Multiplier
  ;                                       !- Carbon Dioxide Capacity Multiplier

OS:ConvergenceLimits,
  {c0b73452-e85a-468c-9eae-2124db731dd9}, !- Handle
  0;                                      !- Minimum System Timestep {minutes}

OS:RunPeriod,
  {578d60cf-6341-4b66-a058-e32e55d90b82}, !- Handle
  Run Period 1,                           !- Name
  1,                                      !- Begin Month
  1,                                      !- Begin Day of Month
  12,                                     !- End Month
  31,                                     !- End Day of Month
  ,                                       !- Use Weather File Holidays and Special Days
  ,                                       !- Use Weather File Daylight Saving Period
  ,                                       !- Apply Weekend Holiday Rule
  ,                                       !- Use Weather File Rain Indicators
  ,                                       !- Use Weather File Snow Indicators
  ;                                       !- Number of Times Runperiod to be Repeated

OS:PerformancePrecisionTradeoffs,
  {f81e4973-2f61-421e-a320-192187b651fc}, !- Handle
  ,                                       !- Use Coil Direct Solutions
  CarrollMRT;                             !- Zone Radiant Exchange Algorithm

OS:WeatherFile,
  {11c80dfd-cb7b-4655-9e8c-570e5e8cafca}, !- Handle
  Buffalo Niagara Intl Ap,                !- City
  NY,                                     !- State Province Region
  USA,                                    !- Country
  TMY3,                                   !- Data Source
  725280,                                 !- WMO Number
  42.93,                                  !- Latitude {deg}
  -78.73,                                 !- Longitude {deg}
  -5,                                     !- Time Zone {hr}
  215,                                    !- Elevation {m}
  /Users/nmoore/github/urbanopt-example-geojson-project/example_project/weather/USA_NY_Buffalo-Greater.Buffalo.Intl.AP.725280_TMY3.epw, !- Url
  6B50E0FF,                               !- Checksum
  ,                                       !- Start Date Actual Year
  Sunday;                                 !- Start Day of Week

OS:YearDescription,
  {22576946-1ebf-4297-b864-ca7f10f4b970}, !- Handle
  2007,                                   !- Calendar Year
  ,                                       !- Day of Week for Start Day
  ;                                       !- Is Leap Year

OS:Site,
  {81dee760-ef45-45a5-a7f3-d58b5a1939c2}, !- Handle
  Buffalo Niagara Intl Ap_NY,             !- Name
  42.93,                                  !- Latitude {deg}
  -78.73,                                 !- Longitude {deg}
  -5,                                     !- Time Zone {hr}
  215,                                    !- Elevation {m}
  Suburbs,                                !- Terrain
  Yes;                                    !- Keep Site Location Information

OS:RunPeriodControl:DaylightSavingTime,
  {cf37c124-2d62-4a42-a426-1b441a1b94dc}, !- Handle
  Mar 12,                                 !- Start Date
  Nov 5;                                  !- End Date

OS:Site:GroundTemperature:Shallow,
  {58428387-31d6-4ee1-b599-5a670c8cf1b6}, !- Handle
  4.30207395723828,                       !- January Surface Ground Temperature {C}
  2.29327249652502,                       !- February Surface Ground Temperature {C}
  2.13240047156047,                       !- March Surface Ground Temperature {C}
  3.08567940719286,                       !- April Surface Ground Temperature {C}
  6.91256312497526,                       !- May Surface Ground Temperature {C}
  10.7216195949507,                       !- June Surface Ground Temperature {C}
  14.0238679822574,                       !- July Surface Ground Temperature {C}
  16.1157611184724,                       !- August Surface Ground Temperature {C}
  16.2934789303462,                       !- September Surface Ground Temperature {C}
  14.5920754632847,                       !- October Surface Ground Temperature {C}
  11.374036348653,                        !- November Surface Ground Temperature {C}
  7.68182621661674;                       !- December Surface Ground Temperature {C}

OS:ThermalZone,
  {c1be240e-b469-4596-9bd7-9748b172ae3e}, !- Handle
  conditioned space,                      !- Name
  1,                                      !- Multiplier
  ,                                       !- Ceiling Height {m}
  692.06373070848,                        !- Volume {m3}
  ,                                       !- Floor Area {m2}
  ,                                       !- Zone Inside Convection Algorithm
  ,                                       !- Zone Outside Convection Algorithm
  ,                                       !- Zone Conditioning Equipment List Name
  {4a69cdea-3b0e-41eb-aec6-20a6ddd49979}, !- Zone Air Inlet Port List
  {8efed588-34c2-4ae7-a792-acdb16e6fa27}, !- Zone Air Exhaust Port List
  {77150be4-868f-481c-a9c7-d5b70ea92721}, !- Zone Air Node Name
  {b81448df-feae-4309-9562-9e95e5d4ae30}, !- Zone Return Air Port List
  ,                                       !- Primary Daylighting Control Name
  ,                                       !- Fraction of Zone Controlled by Primary Daylighting Control
  ,                                       !- Secondary Daylighting Control Name
  ,                                       !- Fraction of Zone Controlled by Secondary Daylighting Control
  ,                                       !- Illuminance Map Name
  ,                                       !- Group Rendering Name
  {4faa2f17-3a94-4c2f-8649-aa6fbb294cec}, !- Thermostat Name
  No;                                     !- Use Ideal Air Loads

OS:Node,
  {193e4213-30da-432b-84ac-c94d0ae4faad}, !- Handle
  Node 1,                                 !- Name
  {77150be4-868f-481c-a9c7-d5b70ea92721}, !- Inlet Port
  ;                                       !- Outlet Port

OS:Connection,
  {77150be4-868f-481c-a9c7-d5b70ea92721}, !- Handle
  {c1be240e-b469-4596-9bd7-9748b172ae3e}, !- Source Object
  11,                                     !- Outlet Port
  {193e4213-30da-432b-84ac-c94d0ae4faad}, !- Target Object
  2;                                      !- Inlet Port

OS:PortList,
  {4a69cdea-3b0e-41eb-aec6-20a6ddd49979}, !- Handle
  {c1be240e-b469-4596-9bd7-9748b172ae3e}, !- HVAC Component
  {4297eec8-6c53-46f9-88dd-b32c1376c55c}; !- Port 1

OS:PortList,
  {8efed588-34c2-4ae7-a792-acdb16e6fa27}, !- Handle
  {c1be240e-b469-4596-9bd7-9748b172ae3e}; !- HVAC Component

OS:PortList,
  {b81448df-feae-4309-9562-9e95e5d4ae30}, !- Handle
  {c1be240e-b469-4596-9bd7-9748b172ae3e}, !- HVAC Component
  {6229a188-7071-4df7-974d-17fd4da1cb94}; !- Port 1

OS:Sizing:Zone,
  {aea82bcb-7200-4909-bf62-df96d809df0f}, !- Handle
  {c1be240e-b469-4596-9bd7-9748b172ae3e}, !- Zone or ZoneList Name
  SupplyAirTemperature,                   !- Zone Cooling Design Supply Air Temperature Input Method
  14,                                     !- Zone Cooling Design Supply Air Temperature {C}
  11.11,                                  !- Zone Cooling Design Supply Air Temperature Difference {deltaC}
  SupplyAirTemperature,                   !- Zone Heating Design Supply Air Temperature Input Method
  40,                                     !- Zone Heating Design Supply Air Temperature {C}
  11.11,                                  !- Zone Heating Design Supply Air Temperature Difference {deltaC}
  0.0085,                                 !- Zone Cooling Design Supply Air Humidity Ratio {kg-H2O/kg-air}
  0.008,                                  !- Zone Heating Design Supply Air Humidity Ratio {kg-H2O/kg-air}
  ,                                       !- Zone Heating Sizing Factor
  ,                                       !- Zone Cooling Sizing Factor
  DesignDay,                              !- Cooling Design Air Flow Method
  ,                                       !- Cooling Design Air Flow Rate {m3/s}
  ,                                       !- Cooling Minimum Air Flow per Zone Floor Area {m3/s-m2}
  ,                                       !- Cooling Minimum Air Flow {m3/s}
  ,                                       !- Cooling Minimum Air Flow Fraction
  DesignDay,                              !- Heating Design Air Flow Method
  ,                                       !- Heating Design Air Flow Rate {m3/s}
  ,                                       !- Heating Maximum Air Flow per Zone Floor Area {m3/s-m2}
  ,                                       !- Heating Maximum Air Flow {m3/s}
  ,                                       !- Heating Maximum Air Flow Fraction
  No,                                     !- Account for Dedicated Outdoor Air System
  NeutralSupplyAir,                       !- Dedicated Outdoor Air System Control Strategy
  autosize,                               !- Dedicated Outdoor Air Low Setpoint Temperature for Design {C}
  autosize,                               !- Dedicated Outdoor Air High Setpoint Temperature for Design {C}
  Sensible Load Only No Latent Load,      !- Zone Load Sizing Method
  HumidityRatioDifference,                !- Zone Latent Cooling Design Supply Air Humidity Ratio Input Method
  ,                                       !- Zone Dehumidification Design Supply Air Humidity Ratio {kgWater/kgDryAir}
  0.005,                                  !- Zone Cooling Design Supply Air Humidity Ratio Difference {kgWater/kgDryAir}
  HumidityRatioDifference,                !- Zone Latent Heating Design Supply Air Humidity Ratio Input Method
  ,                                       !- Zone Humidification Design Supply Air Humidity Ratio {kgWater/kgDryAir}
  0.005,                                  !- Zone Humidification Design Supply Air Humidity Ratio Difference {kgWater/kgDryAir}
  ,                                       !- Zone Humidistat Dehumidification Set Point Schedule Name
  ,                                       !- Zone Humidistat Humidification Set Point Schedule Name
  ,                                       !- Design Zone Air Distribution Effectiveness in Cooling Mode
  ,                                       !- Design Zone Air Distribution Effectiveness in Heating Mode
  ,                                       !- Design Zone Secondary Recirculation Fraction {dimensionless}
  ,                                       !- Design Minimum Zone Ventilation Efficiency {dimensionless}
  Coincident;                             !- Sizing Option

OS:ZoneHVAC:EquipmentList,
  {a6269b31-ff73-4b3f-9b4d-0934e22a59cb}, !- Handle
  Zone HVAC Equipment List 1,             !- Name
  {c1be240e-b469-4596-9bd7-9748b172ae3e}, !- Thermal Zone
  ,                                       !- Load Distribution Scheme
  {03e2aadd-99ed-4666-ba98-b80951abd203}, !- Zone Equipment 1
  1,                                      !- Zone Equipment Cooling Sequence 1
  1,                                      !- Zone Equipment Heating or No-Load Sequence 1
  {95f5fba5-b973-484e-8c8f-c8fb04629611}, !- Zone Equipment Sequential Cooling Fraction Schedule Name 1
  {32d5e327-026d-4286-bb6b-9ce37a244ef5}; !- Zone Equipment Sequential Heating Fraction Schedule Name 1

OS:AdditionalProperties,
  {e30ef9a6-4338-4af9-8cee-3b0bc2afc91d}, !- Handle
  {c1be240e-b469-4596-9bd7-9748b172ae3e}, !- Object Name
  ObjectType,                             !- Feature Name 1
  String,                                 !- Feature Data Type 1
  conditioned space;                      !- Feature Value 1

OS:Space,
  {a0597322-0651-4af8-a917-0b16fe91bc35}, !- Handle
  conditioned space 1,                    !- Name
  ,                                       !- Space Type Name
  ,                                       !- Default Construction Set Name
  ,                                       !- Default Schedule Set Name
  ,                                       !- Direction of Relative North {deg}
  ,                                       !- X Origin {m}
  ,                                       !- Y Origin {m}
  ,                                       !- Z Origin {m}
  ,                                       !- Building Story Name
  {c1be240e-b469-4596-9bd7-9748b172ae3e}, !- Thermal Zone Name
  ,                                       !- Part of Total Floor Area
  ,                                       !- Design Specification Outdoor Air Object Name
  ,                                       !- Building Unit Name
  692.06373070848;                        !- Volume {m3}

OS:Schedule:Ruleset,
  {abf4678c-d3d2-4d03-9b27-023b714ff431}, !- Handle
  heating setpoint,                       !- Name
  {a138f6f0-4b8f-4bee-9985-1d1d7b0a4dd7}, !- Schedule Type Limits Name
  {5ac35d1f-3853-4cb4-8461-615ac19d3e6e}; !- Default Day Schedule Name

OS:Schedule:Day,
  {5ac35d1f-3853-4cb4-8461-615ac19d3e6e}, !- Handle
  heating setpoint default day,           !- Name
  {a138f6f0-4b8f-4bee-9985-1d1d7b0a4dd7}, !- Schedule Type Limits Name
  ,                                       !- Interpolate to Timestep
  24,                                     !- Hour 1
  0,                                      !- Minute 1
  0;                                      !- Value Until Time 1

OS:Schedule:Rule,
  {659fc297-cb72-412b-82aa-00878af081ef}, !- Handle
  heating setpoint allday rule,           !- Name
  {abf4678c-d3d2-4d03-9b27-023b714ff431}, !- Schedule Ruleset Name
  0,                                      !- Rule Order
  {d8c3db6f-435e-4dde-a3ed-b916881a74c7}, !- Day Schedule Name
  Yes,                                    !- Apply Sunday
  Yes,                                    !- Apply Monday
  Yes,                                    !- Apply Tuesday
  Yes,                                    !- Apply Wednesday
  Yes,                                    !- Apply Thursday
  Yes,                                    !- Apply Friday
  Yes,                                    !- Apply Saturday
  DateRange,                              !- Date Specification Type
  1,                                      !- Start Month
  1,                                      !- Start Day
  12,                                     !- End Month
  31;                                     !- End Day

OS:Schedule:Day,
  {d8c3db6f-435e-4dde-a3ed-b916881a74c7}, !- Handle
  heating setpoint day,                   !- Name
  {a138f6f0-4b8f-4bee-9985-1d1d7b0a4dd7}, !- Schedule Type Limits Name
  ,                                       !- Interpolate to Timestep
  24,                                     !- Hour 1
  0,                                      !- Minute 1
  20;                                     !- Value Until Time 1

OS:Schedule:Ruleset,
  {44720792-46c1-4b7e-9d5c-32a2137c8ce0}, !- Handle
  cooling setpoint,                       !- Name
  {a138f6f0-4b8f-4bee-9985-1d1d7b0a4dd7}, !- Schedule Type Limits Name
  {a29fd4c3-a635-45d9-a25e-b3fa1d919363}; !- Default Day Schedule Name

OS:Schedule:Day,
  {a29fd4c3-a635-45d9-a25e-b3fa1d919363}, !- Handle
  cooling setpoint default day,           !- Name
  {a138f6f0-4b8f-4bee-9985-1d1d7b0a4dd7}, !- Schedule Type Limits Name
  ,                                       !- Interpolate to Timestep
  24,                                     !- Hour 1
  0,                                      !- Minute 1
  0;                                      !- Value Until Time 1

OS:Schedule:Rule,
  {391cbaf5-e1af-47da-9a95-d437e7dadae4}, !- Handle
  cooling setpoint allday rule,           !- Name
  {44720792-46c1-4b7e-9d5c-32a2137c8ce0}, !- Schedule Ruleset Name
  0,                                      !- Rule Order
  {4a6d33a3-90e6-4e4d-804e-f366331780ab}, !- Day Schedule Name
  Yes,                                    !- Apply Sunday
  Yes,                                    !- Apply Monday
  Yes,                                    !- Apply Tuesday
  Yes,                                    !- Apply Wednesday
  Yes,                                    !- Apply Thursday
  Yes,                                    !- Apply Friday
  Yes,                                    !- Apply Saturday
  DateRange,                              !- Date Specification Type
  1,                                      !- Start Month
  1,                                      !- Start Day
  12,                                     !- End Month
  31;                                     !- End Day

OS:Schedule:Day,
  {4a6d33a3-90e6-4e4d-804e-f366331780ab}, !- Handle
  cooling setpoint day,                   !- Name
  {a138f6f0-4b8f-4bee-9985-1d1d7b0a4dd7}, !- Schedule Type Limits Name
  ,                                       !- Interpolate to Timestep
  24,                                     !- Hour 1
  0,                                      !- Minute 1
  25.5555555555556;                       !- Value Until Time 1

OS:ThermostatSetpoint:DualSetpoint,
  {4faa2f17-3a94-4c2f-8649-aa6fbb294cec}, !- Handle
  conditioned space temperature setpoint, !- Name
  {abf4678c-d3d2-4d03-9b27-023b714ff431}, !- Heating Setpoint Temperature Schedule Name
  {44720792-46c1-4b7e-9d5c-32a2137c8ce0}, !- Cooling Setpoint Temperature Schedule Name
  0;                                      !- Temperature Difference Between Cutout And Setpoint {deltaC}

OS:ScheduleTypeLimits,
  {a138f6f0-4b8f-4bee-9985-1d1d7b0a4dd7}, !- Handle
  Temperature,                            !- Name
  ,                                       !- Lower Limit Value
  ,                                       !- Upper Limit Value
  Continuous,                             !- Numeric Type
  Temperature;                            !- Unit Type

OS:Surface,
  {80337823-35d7-493e-b67f-d762c3347b25}, !- Handle
  Roof1,                                  !- Name
  RoofCeiling,                            !- Surface Type
  {da8e9271-21e6-4c2c-b019-c88b8abb8bb3}, !- Construction Name
  {e93e3327-d521-43ba-864f-936619b21816}, !- Space Name
  Outdoors,                               !- Outside Boundary Condition
  ,                                       !- Outside Boundary Condition Object
  SunExposed,                             !- Sun Exposure
  WindExposed,                            !- Wind Exposure
  ,                                       !- View Factor to Ground
  ,                                       !- Number of Vertices
  -26.9347048849634, 58.0557891618865, 2.4384, !- X,Y,Z Vertex 1 {m}
  -26.9347048849634, 46.7895631136661, 8.0715130241102, !- X,Y,Z Vertex 2 {m}
  -14.3386812381136, 46.7895631136661, 8.0715130241102, !- X,Y,Z Vertex 3 {m}
  -14.3386812381136, 58.0557891618865, 2.4384; !- X,Y,Z Vertex 4 {m}

OS:AdditionalProperties,
  {cd3feb46-b5ea-4cf6-afe5-d691c72c8501}, !- Handle
  {80337823-35d7-493e-b67f-d762c3347b25}, !- Object Name
  Length,                                 !- Feature Name 1
  Double,                                 !- Feature Data Type 1
  41.325536899113608,                     !- Feature Value 1
  Width,                                  !- Feature Name 2
  Double,                                 !- Feature Data Type 2
  41.325536899113601,                     !- Feature Value 2
  Azimuth,                                !- Feature Name 3
  Integer,                                !- Feature Data Type 3
  0,                                      !- Feature Value 3
  Tilt,                                   !- Feature Name 4
  Double,                                 !- Feature Data Type 4
  0.5,                                    !- Feature Value 4
  SurfaceType,                            !- Feature Name 5
  String,                                 !- Feature Data Type 5
  Roof;                                   !- Feature Value 5

OS:ThermalZone,
  {7ac8c058-ab3b-4ba9-9269-936f8b688749}, !- Handle
  attic - vented,                         !- Name
  1,                                      !- Multiplier
  ,                                       !- Ceiling Height {m}
  356.389957095237,                       !- Volume {m3}
  ,                                       !- Floor Area {m2}
  ,                                       !- Zone Inside Convection Algorithm
  ,                                       !- Zone Outside Convection Algorithm
  ,                                       !- Zone Conditioning Equipment List Name
  {11d9b26f-91c3-4e98-9d34-af246b5f0156}, !- Zone Air Inlet Port List
  {f45dd95d-068b-4a1b-aa2d-23c63d09efff}, !- Zone Air Exhaust Port List
  {9ab3f0c4-27da-444a-ba9c-cdf125c182d6}, !- Zone Air Node Name
  {304ca38d-75bf-4830-abd2-9d4522ef6e2c}, !- Zone Return Air Port List
  ,                                       !- Primary Daylighting Control Name
  ,                                       !- Fraction of Zone Controlled by Primary Daylighting Control
  ,                                       !- Secondary Daylighting Control Name
  ,                                       !- Fraction of Zone Controlled by Secondary Daylighting Control
  ,                                       !- Illuminance Map Name
  ,                                       !- Group Rendering Name
  ,                                       !- Thermostat Name
  No;                                     !- Use Ideal Air Loads

OS:Node,
  {d60be0d9-710e-4272-b563-cea952e7e540}, !- Handle
  Node 2,                                 !- Name
  {9ab3f0c4-27da-444a-ba9c-cdf125c182d6}, !- Inlet Port
  ;                                       !- Outlet Port

OS:Connection,
  {9ab3f0c4-27da-444a-ba9c-cdf125c182d6}, !- Handle
  {7ac8c058-ab3b-4ba9-9269-936f8b688749}, !- Source Object
  11,                                     !- Outlet Port
  {d60be0d9-710e-4272-b563-cea952e7e540}, !- Target Object
  2;                                      !- Inlet Port

OS:PortList,
  {11d9b26f-91c3-4e98-9d34-af246b5f0156}, !- Handle
  {7ac8c058-ab3b-4ba9-9269-936f8b688749}; !- HVAC Component

OS:PortList,
  {f45dd95d-068b-4a1b-aa2d-23c63d09efff}, !- Handle
  {7ac8c058-ab3b-4ba9-9269-936f8b688749}; !- HVAC Component

OS:PortList,
  {304ca38d-75bf-4830-abd2-9d4522ef6e2c}, !- Handle
  {7ac8c058-ab3b-4ba9-9269-936f8b688749}; !- HVAC Component

OS:Sizing:Zone,
  {b01f8dca-c109-484e-84e1-d637acf62be2}, !- Handle
  {7ac8c058-ab3b-4ba9-9269-936f8b688749}, !- Zone or ZoneList Name
  SupplyAirTemperature,                   !- Zone Cooling Design Supply Air Temperature Input Method
  14,                                     !- Zone Cooling Design Supply Air Temperature {C}
  11.11,                                  !- Zone Cooling Design Supply Air Temperature Difference {deltaC}
  SupplyAirTemperature,                   !- Zone Heating Design Supply Air Temperature Input Method
  40,                                     !- Zone Heating Design Supply Air Temperature {C}
  11.11,                                  !- Zone Heating Design Supply Air Temperature Difference {deltaC}
  0.0085,                                 !- Zone Cooling Design Supply Air Humidity Ratio {kg-H2O/kg-air}
  0.008,                                  !- Zone Heating Design Supply Air Humidity Ratio {kg-H2O/kg-air}
  ,                                       !- Zone Heating Sizing Factor
  ,                                       !- Zone Cooling Sizing Factor
  DesignDay,                              !- Cooling Design Air Flow Method
  ,                                       !- Cooling Design Air Flow Rate {m3/s}
  ,                                       !- Cooling Minimum Air Flow per Zone Floor Area {m3/s-m2}
  ,                                       !- Cooling Minimum Air Flow {m3/s}
  ,                                       !- Cooling Minimum Air Flow Fraction
  DesignDay,                              !- Heating Design Air Flow Method
  ,                                       !- Heating Design Air Flow Rate {m3/s}
  ,                                       !- Heating Maximum Air Flow per Zone Floor Area {m3/s-m2}
  ,                                       !- Heating Maximum Air Flow {m3/s}
  ,                                       !- Heating Maximum Air Flow Fraction
  No,                                     !- Account for Dedicated Outdoor Air System
  NeutralSupplyAir,                       !- Dedicated Outdoor Air System Control Strategy
  autosize,                               !- Dedicated Outdoor Air Low Setpoint Temperature for Design {C}
  autosize,                               !- Dedicated Outdoor Air High Setpoint Temperature for Design {C}
  Sensible Load Only No Latent Load,      !- Zone Load Sizing Method
  HumidityRatioDifference,                !- Zone Latent Cooling Design Supply Air Humidity Ratio Input Method
  ,                                       !- Zone Dehumidification Design Supply Air Humidity Ratio {kgWater/kgDryAir}
  0.005,                                  !- Zone Cooling Design Supply Air Humidity Ratio Difference {kgWater/kgDryAir}
  HumidityRatioDifference,                !- Zone Latent Heating Design Supply Air Humidity Ratio Input Method
  ,                                       !- Zone Humidification Design Supply Air Humidity Ratio {kgWater/kgDryAir}
  0.005,                                  !- Zone Humidification Design Supply Air Humidity Ratio Difference {kgWater/kgDryAir}
  ,                                       !- Zone Humidistat Dehumidification Set Point Schedule Name
  ,                                       !- Zone Humidistat Humidification Set Point Schedule Name
  ,                                       !- Design Zone Air Distribution Effectiveness in Cooling Mode
  ,                                       !- Design Zone Air Distribution Effectiveness in Heating Mode
  ,                                       !- Design Zone Secondary Recirculation Fraction {dimensionless}
  ,                                       !- Design Minimum Zone Ventilation Efficiency {dimensionless}
  Coincident;                             !- Sizing Option

OS:ZoneHVAC:EquipmentList,
  {10478631-5091-4e80-9f96-3cb4f9d87812}, !- Handle
  Zone HVAC Equipment List 2,             !- Name
  {7ac8c058-ab3b-4ba9-9269-936f8b688749}; !- Thermal Zone

OS:AdditionalProperties,
  {d749abf9-4ddf-482b-be16-51db102acc58}, !- Handle
  {7ac8c058-ab3b-4ba9-9269-936f8b688749}, !- Object Name
  ObjectType,                             !- Feature Name 1
  String,                                 !- Feature Data Type 1
  attic - vented;                         !- Feature Value 1

OS:Space,
  {e93e3327-d521-43ba-864f-936619b21816}, !- Handle
  attic - vented 1,                       !- Name
  ,                                       !- Space Type Name
  ,                                       !- Default Construction Set Name
  ,                                       !- Default Schedule Set Name
  ,                                       !- Direction of Relative North {deg}
  ,                                       !- X Origin {m}
  ,                                       !- Y Origin {m}
  ,                                       !- Z Origin {m}
  ,                                       !- Building Story Name
  {7ac8c058-ab3b-4ba9-9269-936f8b688749}, !- Thermal Zone Name
  ,                                       !- Part of Total Floor Area
  ,                                       !- Design Specification Outdoor Air Object Name
  ,                                       !- Building Unit Name
  356.389957095237;                       !- Volume {m3}

OS:Material,
  {7b0b0f7b-9bba-4e4e-882a-045922f30090}, !- Handle
  asphalt or fiberglass shingles,         !- Name
  Rough,                                  !- Roughness
  0.00635,                                !- Thickness {m}
  0.162714,                               !- Conductivity {W/m-K}
  1121.4,                                 !- Density {kg/m3}
  1465.45,                                !- Specific Heat {J/kg-K}
  0.9,                                    !- Thermal Absorptance
  0.85,                                   !- Solar Absorptance