
OS:Version,
  {aa878588-bbb2-4dfa-a68f-ed2e4a23ff77}, !- Handle
  3.9.0;                                  !- Version Identifier

OS:SimulationControl,
  {8e6bf5b5-ef8f-43a7-bb46-775aa4c2c096}, !- Handle
  ,                                       !- Do Zone Sizing Calculation
  ,                                       !- Do System Sizing Calculation
  ,                                       !- Do Plant Sizing Calculation
  No;                                     !- Run Simulation for Sizing Periods

OS:Timestep,
  {7b34ace3-f09a-4104-9e3d-6ac9bbff3359}, !- Handle
  1;                                      !- Number of Timesteps per Hour

OS:ShadowCalculation,
  {79cb9962-a284-42e8-ad86-b90a7377fcfb}, !- Handle
  PolygonClipping,                        !- Shading Calculation Method
  ,                                       !- Shading Calculation Update Frequency Method
  20,                                     !- Shading Calculation Update Frequency
  200,                                    !- Maximum Figures in Shadow Overlap Calculations
  ,                                       !- Polygon Clipping Algorithm
  512,                                    !- Pixel Counting Resolution
  ,                                       !- Sky Diffuse Modeling Algorithm
  No,                                     !- Output External Shading Calculation Results
  No,                                     !- Disable Self-Shading Within Shading Zone Groups
  No;                                     !- Disable Self-Shading From Shading Zone Groups to Other Zones

OS:SurfaceConvectionAlgorithm:Outside,
  {653c6eeb-596b-493c-b8d3-5bd50a054212}, !- Handle
  DOE-2;                                  !- Algorithm

OS:SurfaceConvectionAlgorithm:Inside,
  {a32ad66c-8c14-484f-aa46-f8f2f346481b}, !- Handle
  TARP;                                   !- Algorithm

OS:ZoneCapacitanceMultiplier:ResearchSpecial,
  {0076e3bf-be07-4dfd-9f29-4301ad653f01}, !- Handle
  7,                                      !- Temperature Capacity Multiplier
  15,                                     !- Humidity Capacity Multiplier
  ;                                       !- Carbon Dioxide Capacity Multiplier

OS:ConvergenceLimits,
  {eb5b60e8-81ac-4c76-8a5c-258e109a97ea}, !- Handle
  0;                                      !- Minimum System Timestep {minutes}

OS:RunPeriod,
  {122b48a2-108b-4451-912b-43e953e0b310}, !- Handle
  Run Period 1,                           !- Name
  1,                                      !- Begin Month
  1,                                      !- Begin Day of Month
  12,                                     !- End Month
  31,                                     !- End Day of Month
  ,                                       !- Use Weather File Holidays and Special Days
  ,                                       !- Use Weather File Daylight Saving Period
  ,                                       !- Apply Weekend Holiday Rule
  ,                                       !- Use Weather File Rain Indicators
  ,                                       !- Use Weather File Snow Indicators
  ;                                       !- Number of Times Runperiod to be Repeated

OS:PerformancePrecisionTradeoffs,
  {dc641319-b7b7-476b-b927-22711b4210a5}, !- Handle
  ,                                       !- Use Coil Direct Solutions
  CarrollMRT;                             !- Zone Radiant Exchange Algorithm

OS:WeatherFile,
  {2a0ca93e-d942-44aa-aff9-658d6f9d7aba}, !- Handle
  Buffalo Niagara Intl Ap,                !- City
  NY,                                     !- State Province Region
  USA,                                    !- Country
  TMY3,                                   !- Data Source
  725280,                                 !- WMO Number
  42.93,                                  !- Latitude {deg}
  -78.73,                                 !- Longitude {deg}
  -5,                                     !- Time Zone {hr}
  215,                                    !- Elevation {m}
  /Users/nmoore/github/urbanopt-example-geojson-project/example_project/weather/USA_NY_Buffalo-Greater.Buffalo.Intl.AP.725280_TMY3.epw, !- Url
  6B50E0FF,                               !- Checksum
  ,                                       !- Start Date Actual Year
  Sunday;                                 !- Start Day of Week

OS:YearDescription,
  {d2de7338-c01a-4b67-934f-732a95ea85a2}, !- Handle
  2007,                                   !- Calendar Year
  ,                                       !- Day of Week for Start Day
  ;                                       !- Is Leap Year

OS:Site,
  {7de50a3b-6f0d-4bea-a546-18888b29e2ef}, !- Handle
  Buffalo Niagara Intl Ap_NY,             !- Name
  42.93,                                  !- Latitude {deg}
  -78.73,                                 !- Longitude {deg}
  -5,                                     !- Time Zone {hr}
  215,                                    !- Elevation {m}
  Suburbs,                                !- Terrain
  Yes;                                    !- Keep Site Location Information

OS:RunPeriodControl:DaylightSavingTime,
  {ba1fc61d-10df-4f49-9101-2132d4f24241}, !- Handle
  Mar 12,                                 !- Start Date
  Nov 5;                                  !- End Date

OS:Site:GroundTemperature:Shallow,
  {66f2c8a0-4fe5-49a3-af63-bcc54a466626}, !- Handle
  4.30207395723828,                       !- January Surface Ground Temperature {C}
  2.29327249652502,                       !- February Surface Ground Temperature {C}
  2.13240047156047,                       !- March Surface Ground Temperature {C}
  3.08567940719286,                       !- April Surface Ground Temperature {C}
  6.91256312497526,                       !- May Surface Ground Temperature {C}
  10.7216195949507,                       !- June Surface Ground Temperature {C}
  14.0238679822574,                       !- July Surface Ground Temperature {C}
  16.1157611184724,                       !- August Surface Ground Temperature {C}
  16.2934789303462,                       !- September Surface Ground Temperature {C}
  14.5920754632847,                       !- October Surface Ground Temperature {C}
  11.374036348653,                        !- November Surface Ground Temperature {C}
  7.68182621661674;                       !- December Surface Ground Temperature {C}

OS:ThermalZone,
  {f79f8c40-d544-4018-9599-ea80d98ee0fb}, !- Handle
  conditioned space,                      !- Name
  1,                                      !- Multiplier
  ,                                       !- Ceiling Height {m}
  692.06373070848,                        !- Volume {m3}
  ,                                       !- Floor Area {m2}
  ,                                       !- Zone Inside Convection Algorithm
  ,                                       !- Zone Outside Convection Algorithm
  ,                                       !- Zone Conditioning Equipment List Name
  {0dddc257-fd68-4dad-8893-1af84a52b60b}, !- Zone Air Inlet Port List
  {52f9a257-c66f-44a1-8858-89205a1f7b73}, !- Zone Air Exhaust Port List
  {a3512410-aac0-4046-9393-7c6d67c2a0c7}, !- Zone Air Node Name
  {06eee880-e4de-4639-8a8d-88ad1303879d}, !- Zone Return Air Port List
  ,                                       !- Primary Daylighting Control Name
  ,                                       !- Fraction of Zone Controlled by Primary Daylighting Control
  ,                                       !- Secondary Daylighting Control Name
  ,                                       !- Fraction of Zone Controlled by Secondary Daylighting Control
  ,                                       !- Illuminance Map Name
  ,                                       !- Group Rendering Name
  {d25ebed0-bb30-4e5a-ae71-a1674b0bc4a8}, !- Thermostat Name
  No;                                     !- Use Ideal Air Loads

OS:Node,
  {2e3e7986-f5c8-4802-b716-0e1a930dccfb}, !- Handle
  Node 1,                                 !- Name
  {a3512410-aac0-4046-9393-7c6d67c2a0c7}, !- Inlet Port
  ;                                       !- Outlet Port

OS:Connection,
  {a3512410-aac0-4046-9393-7c6d67c2a0c7}, !- Handle
  {f79f8c40-d544-4018-9599-ea80d98ee0fb}, !- Source Object
  11,                                     !- Outlet Port
  {2e3e7986-f5c8-4802-b716-0e1a930dccfb}, !- Target Object
  2;                                      !- Inlet Port

OS:PortList,
  {0dddc257-fd68-4dad-8893-1af84a52b60b}, !- Handle
  {f79f8c40-d544-4018-9599-ea80d98ee0fb}, !- HVAC Component
  {c88cce77-c79b-465f-813a-be72d74f79e6}; !- Port 1

OS:PortList,
  {52f9a257-c66f-44a1-8858-89205a1f7b73}, !- Handle
  {f79f8c40-d544-4018-9599-ea80d98ee0fb}; !- HVAC Component

OS:PortList,
  {06eee880-e4de-4639-8a8d-88ad1303879d}, !- Handle
  {f79f8c40-d544-4018-9599-ea80d98ee0fb}, !- HVAC Component
  {6896afe5-3bd8-4591-aefc-5523e86038ea}; !- Port 1

OS:Sizing:Zone,
  {f83ab063-5a41-4f0b-b3d9-aa3b4073cb50}, !- Handle
  {f79f8c40-d544-4018-9599-ea80d98ee0fb}, !- Zone or ZoneList Name
  SupplyAirTemperature,                   !- Zone Cooling Design Supply Air Temperature Input Method
  14,                                     !- Zone Cooling Design Supply Air Temperature {C}
  11.11,                                  !- Zone Cooling Design Supply Air Temperature Difference {deltaC}
  SupplyAirTemperature,                   !- Zone Heating Design Supply Air Temperature Input Method
  40,                                     !- Zone Heating Design Supply Air Temperature {C}
  11.11,                                  !- Zone Heating Design Supply Air Temperature Difference {deltaC}
  0.0085,                                 !- Zone Cooling Design Supply Air Humidity Ratio {kg-H2O/kg-air}
  0.008,                                  !- Zone Heating Design Supply Air Humidity Ratio {kg-H2O/kg-air}
  ,                                       !- Zone Heating Sizing Factor
  ,                                       !- Zone Cooling Sizing Factor
  DesignDay,                              !- Cooling Design Air Flow Method
  ,                                       !- Cooling Design Air Flow Rate {m3/s}
  ,                                       !- Cooling Minimum Air Flow per Zone Floor Area {m3/s-m2}
  ,                                       !- Cooling Minimum Air Flow {m3/s}
  ,                                       !- Cooling Minimum Air Flow Fraction
  DesignDay,                              !- Heating Design Air Flow Method
  ,                                       !- Heating Design Air Flow Rate {m3/s}
  ,                                       !- Heating Maximum Air Flow per Zone Floor Area {m3/s-m2}
  ,                                       !- Heating Maximum Air Flow {m3/s}
  ,                                       !- Heating Maximum Air Flow Fraction
  No,                                     !- Account for Dedicated Outdoor Air System
  NeutralSupplyAir,                       !- Dedicated Outdoor Air System Control Strategy
  autosize,                               !- Dedicated Outdoor Air Low Setpoint Temperature for Design {C}
  autosize,                               !- Dedicated Outdoor Air High Setpoint Temperature for Design {C}
  Sensible Load Only No Latent Load,      !- Zone Load Sizing Method
  HumidityRatioDifference,                !- Zone Latent Cooling Design Supply Air Humidity Ratio Input Method
  ,                                       !- Zone Dehumidification Design Supply Air Humidity Ratio {kgWater/kgDryAir}
  0.005,                                  !- Zone Cooling Design Supply Air Humidity Ratio Difference {kgWater/kgDryAir}
  HumidityRatioDifference,                !- Zone Latent Heating Design Supply Air Humidity Ratio Input Method
  ,                                       !- Zone Humidification Design Supply Air Humidity Ratio {kgWater/kgDryAir}
  0.005,                                  !- Zone Humidification Design Supply Air Humidity Ratio Difference {kgWater/kgDryAir}
  ,                                       !- Zone Humidistat Dehumidification Set Point Schedule Name
  ,                                       !- Zone Humidistat Humidification Set Point Schedule Name
  ,                                       !- Design Zone Air Distribution Effectiveness in Cooling Mode
  ,                                       !- Design Zone Air Distribution Effectiveness in Heating Mode
  ,                                       !- Design Zone Secondary Recirculation Fraction {dimensionless}
  ,                                       !- Design Minimum Zone Ventilation Efficiency {dimensionless}
  Coincident;                             !- Sizing Option

OS:ZoneHVAC:EquipmentList,
  {5a9f183e-d06c-47b0-ab2f-dd76e510295b}, !- Handle
  Zone HVAC Equipment List 1,             !- Name
  {f79f8c40-d544-4018-9599-ea80d98ee0fb}, !- Thermal Zone
  ,                                       !- Load Distribution Scheme
  {ec2e49ec-5771-4be8-9688-f4bae178ed7c}, !- Zone Equipment 1
  1,                                      !- Zone Equipment Cooling Sequence 1
  1,                                      !- Zone Equipment Heating or No-Load Sequence 1
  {480391f9-4b8a-4698-b5b5-4b0cedd75b07}, !- Zone Equipment Sequential Cooling Fraction Schedule Name 1
  {91f34592-a61d-4bfe-9442-4b41f05ff2e9}; !- Zone Equipment Sequential Heating Fraction Schedule Name 1

OS:AdditionalProperties,
  {930cb33c-6677-4710-ad48-a3319b06403b}, !- Handle
  {f79f8c40-d544-4018-9599-ea80d98ee0fb}, !- Object Name
  ObjectType,                             !- Feature Name 1
  String,                                 !- Feature Data Type 1
  conditioned space;                      !- Feature Value 1

OS:Space,
  {b42f7d92-e3a5-42e9-be45-3951c9c45e88}, !- Handle
  conditioned space 1,                    !- Name
  ,                                       !- Space Type Name
  ,                                       !- Default Construction Set Name
  ,                                       !- Default Schedule Set Name
  ,                                       !- Direction of Relative North {deg}
  ,                                       !- X Origin {m}
  ,                                       !- Y Origin {m}
  ,                                       !- Z Origin {m}
  ,                                       !- Building Story Name
  {f79f8c40-d544-4018-9599-ea80d98ee0fb}, !- Thermal Zone Name
  ,                                       !- Part of Total Floor Area
  ,                                       !- Design Specification Outdoor Air Object Name
  ,                                       !- Building Unit Name
  692.06373070848;                        !- Volume {m3}

OS:Schedule:Ruleset,
  {07868da3-1852-4669-90ef-bfa3763b7ba6}, !- Handle
  heating setpoint,                       !- Name
  {f7124589-c7ec-49cd-8688-7651eeaff781}, !- Schedule Type Limits Name
  {b4fcece7-7f27-4a22-a22b-7ac6240de8fe}; !- Default Day Schedule Name

OS:Schedule:Day,
  {b4fcece7-7f27-4a22-a22b-7ac6240de8fe}, !- Handle
  heating setpoint default day,           !- Name
  {f7124589-c7ec-49cd-8688-7651eeaff781}, !- Schedule Type Limits Name
  ,                                       !- Interpolate to Timestep
  24,                                     !- Hour 1
  0,                                      !- Minute 1
  0;                                      !- Value Until Time 1

OS:Schedule:Rule,
  {de86a91b-4c1d-49bd-87ec-68e179eebcf6}, !- Handle
  heating setpoint allday rule,           !- Name
  {07868da3-1852-4669-90ef-bfa3763b7ba6}, !- Schedule Ruleset Name
  0,                                      !- Rule Order
  {5bc04192-6637-4e88-b456-220d78ee450e}, !- Day Schedule Name
  Yes,                                    !- Apply Sunday
  Yes,                                    !- Apply Monday
  Yes,                                    !- Apply Tuesday
  Yes,                                    !- Apply Wednesday
  Yes,                                    !- Apply Thursday
  Yes,                                    !- Apply Friday
  Yes,                                    !- Apply Saturday
  DateRange,                              !- Date Specification Type
  1,                                      !- Start Month
  1,                                      !- Start Day
  12,                                     !- End Month
  31;                                     !- End Day

OS:Schedule:Day,
  {5bc04192-6637-4e88-b456-220d78ee450e}, !- Handle
  heating setpoint day,                   !- Name
  {f7124589-c7ec-49cd-8688-7651eeaff781}, !- Schedule Type Limits Name
  ,                                       !- Interpolate to Timestep
  24,                                     !- Hour 1
  0,                                      !- Minute 1
  20;                                     !- Value Until Time 1

OS:Schedule:Ruleset,
  {da5af84d-9ba0-40f8-8b9c-6af63c1df44d}, !- Handle
  cooling setpoint,                       !- Name
  {f7124589-c7ec-49cd-8688-7651eeaff781}, !- Schedule Type Limits Name
  {c16e19fc-fad1-4a1c-b5be-9845e4896ff8}; !- Default Day Schedule Name

OS:Schedule:Day,
  {c16e19fc-fad1-4a1c-b5be-9845e4896ff8}, !- Handle
  cooling setpoint default day,           !- Name
  {f7124589-c7ec-49cd-8688-7651eeaff781}, !- Schedule Type Limits Name
  ,                                       !- Interpolate to Timestep
  24,                                     !- Hour 1
  0,                                      !- Minute 1
  0;                                      !- Value Until Time 1

OS:Schedule:Rule,
  {f92f0525-df6e-47ad-ba25-51d7c10aed29}, !- Handle
  cooling setpoint allday rule,           !- Name
  {da5af84d-9ba0-40f8-8b9c-6af63c1df44d}, !- Schedule Ruleset Name
  0,                                      !- Rule Order
  {4f852b48-9ec0-4b83-854c-2929ab4b357e}, !- Day Schedule Name
  Yes,                                    !- Apply Sunday
  Yes,                                    !- Apply Monday
  Yes,                                    !- Apply Tuesday
  Yes,                                    !- Apply Wednesday
  Yes,                                    !- Apply Thursday
  Yes,                                    !- Apply Friday
  Yes,                                    !- Apply Saturday
  DateRange,                              !- Date Specification Type
  1,                                      !- Start Month
  1,                                      !- Start Day
  12,                                     !- End Month
  31;                                     !- End Day

OS:Schedule:Day,
  {4f852b48-9ec0-4b83-854c-2929ab4b357e}, !- Handle
  cooling setpoint day,                   !- Name
  {f7124589-c7ec-49cd-8688-7651eeaff781}, !- Schedule Type Limits Name
  ,                                       !- Interpolate to Timestep
  24,                                     !- Hour 1
  0,                                      !- Minute 1
  25.5555555555556;                       !- Value Until Time 1

OS:ThermostatSetpoint:DualSetpoint,
  {d25ebed0-bb30-4e5a-ae71-a1674b0bc4a8}, !- Handle
  conditioned space temperature setpoint, !- Name
  {07868da3-1852-4669-90ef-bfa3763b7ba6}, !- Heating Setpoint Temperature Schedule Name
  {da5af84d-9ba0-40f8-8b9c-6af63c1df44d}, !- Cooling Setpoint Temperature Schedule Name
  0;                                      !- Temperature Difference Between Cutout And Setpoint {deltaC}

OS:ScheduleTypeLimits,
  {f7124589-c7ec-49cd-8688-7651eeaff781}, !- Handle
  Temperature,                            !- Name
  ,                                       !- Lower Limit Value
  ,                                       !- Upper Limit Value
  Continuous,                             !- Numeric Type
  Temperature;                            !- Unit Type

OS:Surface,
  {f41aa9f5-1261-4616-88cc-56803aae10e0}, !- Handle
  Roof1,                                  !- Name
  RoofCeiling,                            !- Surface Type
  {5618e68d-28e7-447f-b784-56a3130f7d0d}, !- Construction Name
  {b42f7d92-e3a5-42e9-be45-3951c9c45e88}, !- Space Name
  Outdoors,                               !- Outside Boundary Condition
  ,                                       !- Outside Boundary Condition Object
  SunExposed,                             !- Sun Exposure
  WindExposed,                            !- Wind Exposure
  ,                                       !- View Factor to Ground
  ,                                       !- Number of Vertices
  -8.42346109387347, 8.42346109387347, 3.048, !- X,Y,Z Vertex 1 {m}
  -8.42346109387347, -8.42346109387347, 3.048, !- X,Y,Z Vertex 2 {m}
  8.42346109387347, -8.42346109387347, 3.048, !- X,Y,Z Vertex 3 {m}
  8.42346109387347, 8.42346109387347, 3.048; !- X,Y,Z Vertex 4 {m}

OS:AdditionalProperties,
  {6c90fb2f-4812-49f9-8b32-665725853db1}, !- Handle
  {f41aa9f5-1261-4616-88cc-56803aae10e0}, !- Object Name
  Length,                                 !- Feature Name 1
  Double,                                 !- Feature Data Type 1
  55.27205442174192,                      !- Feature Value 1
  Width,                                  !- Feature Name 2
  Double,                                 !- Feature Data Type 2
  55.272054421741913,                     !- Feature Value 2
  Azimuth,                                !- Feature Name 3
  Integer,                                !- Feature Data Type 3
  0,                                      !- Feature Value 3
  Tilt,                                   !- Feature Name 4
  Double,                                 !- Feature Data Type 4
  0,                                      !- Feature Value 4
  SurfaceType,                            !- Feature Name 5
  String,                                 !- Feature Data Type 5
  Roof;                                   !- Feature Value 5

OS:Material,
  {6aa01545-bcf7-4506-8347-0f5daa9cfd71}, !- Handle
  asphalt or fiberglass shingles,         !- Name
  Rough,                                  !- Roughness
  0.00635,                                !- Thickness {m}
  0.162714,                               !- Conductivity {W/m-K}
  1121.4,                                 !- Density {kg/m3}
  1465.45,                                !- Specific Heat {J/kg-K}
  0.9,                                    !- Thermal Absorptance
  0.85,                                   !- Solar Absorptance
  0.85;                                   !- Visible Absorptance

OS:Material,
  {1eedbf41-a8d1-4e6c-a857-c660b6b35d89}, !- Handle
  roof stud and cavity,                   !- Name
  Rough,                                  !- Roughness
  0.0889,                                 !- Thickness {m}
  0.491900632004487,                      !- Conductivity {W/m-K}
  50.32683,                               !- Density {kg/m3}
  1063.80987585548,                       !- Specific Heat {J/kg-K}
  0.9,                                    !- Thermal Absorptance
  0.7,                                    !- Solar Absorptance
  0.7;                                    !- Visible Absorptance

OS:Material,
  {f30b05b3-a476-4fc7-b1b8-1f19bf042ec2}, !- Handle
  gypsum board,                           !- Name
  Rough,                                  !- Roughness
  0.00254,                                !- Thickness {m}
  0.1602906,                              !- Conductivity {W/m-K}
  801,                                    !- Density {kg/m3}
  837.4,                                  !- Specific Heat {J/kg-K}
  0.9,                                    !- Thermal Absorptance
  0.6,                                    !- Solar Absorptance
  0.6;                                    !- Visible Absorptance

OS:Construction,
  {5618e68d-28e7-447f-b784-56a3130f7d0d}, !- Handle
  Roof1 construction,                     !- Name
  ,                                       !- Surface Rendering Name
  {6aa01545-bcf7-4506-8347-0f5daa9cfd71}, !- Layer 1
  {1eedbf41-a8d1-4e6c-a857-c660b6b35d89}, !- Layer 2
  {f30b05b3-a476-4fc7-b1b8-1f19bf042ec2}; !- Layer 3

OS:Surface,
  {41c66801-16b2-42a4-8460-2977042019e3}, !- Handle
  Wall1,                                  !- Name
  Wall,                                   !- Surface Type
  {10ee566a-9491-4035-a8f6-b2d705a73952}, !- Construction Name
  {b42f7d92-e3a5-42e9-be45-3951c9c45e88}, !- Space Name
  Outdoors,                               !- Outside Boundary Condition
  ,                                       !- Outside Boundary Condition Object
  SunExposed,                             !- Sun Exposure
  WindExposed,                            !- Wind Exposure
  ,                                       !- View Factor to Ground
  ,                                       !- Number of Vertices
  -13.6265098242187, 15.6365136527044, 0.6096, !- X,Y,Z Vertex 1 {m}
  -13.6265098242187, 15.6365136527044, 3.048, !- X,Y,Z Vertex 2 {m}
  5.90736017578134, 15.6365136527044, 3.048, !- X,Y,Z Vertex 3 {m}
  5.90736017578134, 15.6365136527044, 0.6096; !- X,Y,Z Vertex 4 {m}

OS:AdditionalProperties,
  {e3354ff7-f805-4ebc-9e9d-65c2efc6d9f5}, !- Handle
  {41c66801-16b2-42a4-8460-2977042019e3}, !- Object Name
  Length,                                 !- Feature Name 1
  Double,                                 !- Feature Data Type 1
  64.087499999999991,                     !- Feature Value 1
  Azimuth,                                !- Feature Name 2
  Integer,                                !- Feature Data Type 2
  0,                                      !- Feature Value 2
  Tilt,                                   !- Feature Name 3
  Double,                                 !- Feature Data Type 3
  90,                                     !- Feature Value 3
  SurfaceType,                            !- Feature Name 4
  String,                                 !- Feature Data Type 4
  Wall;                                   !- Feature Value 4

OS:Material,
  {bfd41191-dbd7-484a-b33d-cae042bd0bd3}, !- Handle
  wood siding,                            !- Name
  Rough,                                  !- Roughness
  0.0254,                                 !- Thickness {m}
  0.1024175,                              !- Conductivity {W/m-K}
  544.68,                                 !- Density {kg/m3}
  1172.36,                                !- Specific Heat {J/kg-K}
  0.9,                                    !- Thermal Absorptance
  0.7,                                    !- Solar Absorptance
  0.7;                                    !- Visible Absorptance

OS:Material,
  {0057089c-01e3-4eae-8ccb-1a2b2e957d75}, !- Handle
  osb sheathing 0.5 in.,                  !- Name
  Rough,                                  !- Roughness
  0.0127,                                 !- Thickness {m}
  0.1154577,                              !- Conductivity {W/m-K}
  512.64,                                 !- Density {kg/m3}
  1214.23,                                !- Specific Heat {J/kg-K}
  0.9,                                    !- Thermal Absorptance
  0.7,                                    !- Solar Absorptance
  0.7;                                    !- Visible Absorptance

OS:Material,
  {1e3244a7-874f-4a08-abbf-679a7864ae24}, !- Handle
  wall stud and cavity,                   !- Name
  Rough,                                  !- Roughness
  0.1397,                                 !- Thickness {m}
  0.0929021674204099,                     !- Conductivity {W/m-K}
  139.0536,                               !- Density {kg/m3}
  1170.23755760369,                       !- Specific Heat {J/kg-K}
  0.9,                                    !- Thermal Absorptance
  0.7,                                    !- Solar Absorptance
  0.7;                                    !- Visible Absorptance

OS:Material,
  {7d5be84c-f878-44ae-81ce-49c1131ae2e7}, !- Handle
  gypsum board 1,                         !- Name
  Rough,                                  !- Roughness
  0.0127,                                 !- Thickness {m}
  0.1602906,                              !- Conductivity {W/m-K}
  801,                                    !- Density {kg/m3}
  837.4,                                  !- Specific Heat {J/kg-K}
  0.9,                                    !- Thermal Absorptance
  0.6,                                    !- Solar Absorptance
  0.6;                                    !- Visible Absorptance

OS:Construction,
  {10ee566a-9491-4035-a8f6-b2d705a73952}, !- Handle
  Wall1 construction,                     !- Name
  ,                                       !- Surface Rendering Name
  {bfd41191-dbd7-484a-b33d-cae042bd0bd3}, !- Layer 1
  {0057089c-01e3-4eae-8ccb-1a2b2e957d75}, !- Layer 2
  {1e3244a7-874f-4a08-abbf-679a7864ae24}, !- Layer 3
  {7d5be84c-f878-44ae-81ce-49c1131ae2e7}; !- Layer 4

OS:Surface,
  {f3f9c445-c874-47a9-a22d-55fdc35ac971}, !- Handle
  Wall2,                                  !- Name
  Wall,                                   !- Surface Type
  {5a9623d2-024b-494e-93b9-6b06479ed313}, !- Construction Name
  {b42f7d92-e3a5-42e9-be45-3951c9c45e88}, !- Space Name
  Outdoors,                               !- Outside Boundary Condition
  ,                                       !- Outside Boundary Condition Object
  SunExposed,                             !- Sun Exposure
  WindExposed,                            !- Wind Exposure
  ,                                       !- View Factor to Ground
  ,                                       !- Number of Vertices
  15.6365136527044, -0.538581714242879, 0.6096, !- X,Y,Z Vertex 1 {m}
  15.6365136527044, -0.538581714242879, 3.048, !- X,Y,Z Vertex 2 {m}
  15.6365136527044, -10.3074217142429, 3.048, !- X,Y,Z Vertex 3 {m}
  15.6365136527044, -10.3074217142429, 0.6096; !- X,Y,Z Vertex 4 {m}

OS:AdditionalProperties,
  {25d6ca76-1107-413c-9cdd-2def6c7f5dfd}, !- Handle
  {f3f9c445-c874-47a9-a22d-55fdc35ac971}, !- Object Name
  Length,                                 !- Feature Name 1
  Double,                                 !- Feature Data Type 1
  32.049999999999997,                     !- Feature Value 1
  Azimuth,                                !- Feature Name 2