
OS:Version,
  {aeacfd6c-dcd8-4d47-9833-257d880798d7}, !- Handle
  3.10.0;                                 !- Version Identifier

OS:SimulationControl,
  {388271dd-a2a7-4518-9229-abfe4c85979a}, !- Handle
  ,                                       !- Do Zone Sizing Calculation
  ,                                       !- Do System Sizing Calculation
  ,                                       !- Do Plant Sizing Calculation
  No;                                     !- Run Simulation for Sizing Periods

OS:Timestep,
  {0b1b73cf-eae0-47a5-9c23-f33c0947bd0e}, !- Handle
  1;                                      !- Number of Timesteps per Hour

OS:ShadowCalculation,
  {d2799f97-1d1b-4a87-bd8c-7906643b7a4c}, !- Handle
  PolygonClipping,                        !- Shading Calculation Method
  ,                                       !- Shading Calculation Update Frequency Method
  20,                                     !- Shading Calculation Update Frequency
  200,                                    !- Maximum Figures in Shadow Overlap Calculations
  ,                                       !- Polygon Clipping Algorithm
  512,                                    !- Pixel Counting Resolution
  ,                                       !- Sky Diffuse Modeling Algorithm
  No,                                     !- Output External Shading Calculation Results
  No,                                     !- Disable Self-Shading Within Shading Zone Groups
  No;                                     !- Disable Self-Shading From Shading Zone Groups to Other Zones

OS:SurfaceConvectionAlgorithm:Outside,
  {1878f9d3-255d-48a4-b6f3-9fb35b79c248}, !- Handle
  DOE-2;                                  !- Algorithm

OS:SurfaceConvectionAlgorithm:Inside,
  {d68b3d20-6224-4fa5-89ed-fea91da775ce}, !- Handle
  TARP;                                   !- Algorithm

OS:ZoneCapacitanceMultiplier:ResearchSpecial,
  {e497f338-2c7b-47d2-af59-df702b0e5fc7}, !- Handle
  7,                                      !- Temperature Capacity Multiplier
  15,                                     !- Humidity Capacity Multiplier
  ;                                       !- Carbon Dioxide Capacity Multiplier

OS:ConvergenceLimits,
  {69e70727-039f-459d-8d51-977a50f93e38}, !- Handle
  0;                                      !- Minimum System Timestep {minutes}

OS:RunPeriod,
  {858f04cd-ebae-4726-95c6-0efd77814247}, !- Handle
  Run Period 1,                           !- Name
  1,                                      !- Begin Month
  1,                                      !- Begin Day of Month
  12,                                     !- End Month
  31,                                     !- End Day of Month
  ,                                       !- Use Weather File Holidays and Special Days
  ,                                       !- Use Weather File Daylight Saving Period
  ,                                       !- Apply Weekend Holiday Rule
  ,                                       !- Use Weather File Rain Indicators
  ,                                       !- Use Weather File Snow Indicators
  ;                                       !- Number of Times Runperiod to be Repeated

OS:PerformancePrecisionTradeoffs,
  {3c83d0ee-70cc-43ed-866e-b442f8e84b98}, !- Handle
  ,                                       !- Use Coil Direct Solutions
  CarrollMRT;                             !- Zone Radiant Exchange Algorithm

OS:WeatherFile,
  {c8f60b2c-2b11-405c-b1b9-90a1229b6c1d}, !- Handle
  Buffalo Niagara Intl Ap,                !- City
  NY,                                     !- State Province Region
  USA,                                    !- Country
  TMY3,                                   !- Data Source
  725280,                                 !- WMO Number
  42.93,                                  !- Latitude {deg}
  -78.73,                                 !- Longitude {deg}
  -5,                                     !- Time Zone {hr}
  215,                                    !- Elevation {m}
  /Users/nmoore/github/urbanopt-example-geojson-project/example_project/weather/USA_NY_Buffalo-Greater.Buffalo.Intl.AP.725280_TMY3.epw, !- Url
  6B50E0FF,                               !- Checksum
  ,                                       !- Start Date Actual Year
  Sunday;                                 !- Start Day of Week

OS:YearDescription,
  {8572202d-497a-401e-bf8f-1f2351b0d3dd}, !- Handle
  2007,                                   !- Calendar Year
  ,                                       !- Day of Week for Start Day
  ;                                       !- Is Leap Year

OS:Site,
  {3781b99d-bc05-4adf-9586-78a39f2cb6cf}, !- Handle
  Buffalo Niagara Intl Ap_NY,             !- Name
  42.93,                                  !- Latitude {deg}
  -78.73,                                 !- Longitude {deg}
  -5,                                     !- Time Zone {hr}
  215,                                    !- Elevation {m}
  Suburbs,                                !- Terrain
  Yes;                                    !- Keep Site Location Information

OS:RunPeriodControl:DaylightSavingTime,
  {6a0dffd5-7464-412b-b725-f7e3a60fd7f1}, !- Handle
  Mar 12,                                 !- Start Date
  Nov 5;                                  !- End Date

OS:Site:GroundTemperature:Shallow,
  {090b5626-4d38-4533-a48e-08d172de1989}, !- Handle
  4.30207395723828,                       !- January Surface Ground Temperature {C}
  2.29327249652502,                       !- February Surface Ground Temperature {C}
  2.13240047156047,                       !- March Surface Ground Temperature {C}
  3.08567940719286,                       !- April Surface Ground Temperature {C}
  6.91256312497526,                       !- May Surface Ground Temperature {C}
  10.7216195949507,                       !- June Surface Ground Temperature {C}
  14.0238679822574,                       !- July Surface Ground Temperature {C}
  16.1157611184724,                       !- August Surface Ground Temperature {C}
  16.2934789303462,                       !- September Surface Ground Temperature {C}
  14.5920754632847,                       !- October Surface Ground Temperature {C}
  11.374036348653,                        !- November Surface Ground Temperature {C}
  7.68182621661674;                       !- December Surface Ground Temperature {C}

OS:ThermalZone,
  {96c0a689-0384-4b60-8c07-c1b75ead1ae9}, !- Handle
  conditioned space,                      !- Name
  1,                                      !- Multiplier
  ,                                       !- Ceiling Height {m}
  692.06373070848,                        !- Volume {m3}
  ,                                       !- Floor Area {m2}
  ,                                       !- Zone Inside Convection Algorithm
  ,                                       !- Zone Outside Convection Algorithm
  ,                                       !- Zone Conditioning Equipment List Name
  {2f2667ea-6ceb-4a56-8ca2-b4cbb2d0559c}, !- Zone Air Inlet Port List
  {a453bb4a-8af7-40cb-99ac-db7edcff65fb}, !- Zone Air Exhaust Port List
  {7ed97d77-91eb-4a60-b00d-4c262e9fe9ff}, !- Zone Air Node Name
  {1b91e195-a031-4447-b812-85320558674d}, !- Zone Return Air Port List
  ,                                       !- Primary Daylighting Control Name
  ,                                       !- Fraction of Zone Controlled by Primary Daylighting Control
  ,                                       !- Secondary Daylighting Control Name
  ,                                       !- Fraction of Zone Controlled by Secondary Daylighting Control
  ,                                       !- Illuminance Map Name
  ,                                       !- Group Rendering Name
  {5cc2e636-33e0-4d62-bc12-2d368420599b}, !- Thermostat Name
  No;                                     !- Use Ideal Air Loads

OS:Node,
  {546e0204-75ac-4b55-8258-95703ff5dc31}, !- Handle
  Node 1,                                 !- Name
  {7ed97d77-91eb-4a60-b00d-4c262e9fe9ff}, !- Inlet Port
  ;                                       !- Outlet Port

OS:Connection,
  {7ed97d77-91eb-4a60-b00d-4c262e9fe9ff}, !- Handle
  {96c0a689-0384-4b60-8c07-c1b75ead1ae9}, !- Source Object
  11,                                     !- Outlet Port
  {546e0204-75ac-4b55-8258-95703ff5dc31}, !- Target Object
  2;                                      !- Inlet Port

OS:PortList,
  {2f2667ea-6ceb-4a56-8ca2-b4cbb2d0559c}, !- Handle
  {96c0a689-0384-4b60-8c07-c1b75ead1ae9}, !- HVAC Component
  {29d99de3-62f6-4f47-8d3f-1568c4a6eee8}; !- Port 1

OS:PortList,
  {a453bb4a-8af7-40cb-99ac-db7edcff65fb}, !- Handle
  {96c0a689-0384-4b60-8c07-c1b75ead1ae9}; !- HVAC Component

OS:PortList,
  {1b91e195-a031-4447-b812-85320558674d}, !- Handle
  {96c0a689-0384-4b60-8c07-c1b75ead1ae9}, !- HVAC Component
  {0b3fdf0a-2fb9-4da1-a678-e02b0e4b22b9}; !- Port 1

OS:Sizing:Zone,
  {c12ff388-cbc4-4ada-8c5b-121542fbcf91}, !- Handle
  {96c0a689-0384-4b60-8c07-c1b75ead1ae9}, !- Zone or ZoneList Name
  SupplyAirTemperature,                   !- Zone Cooling Design Supply Air Temperature Input Method
  14,                                     !- Zone Cooling Design Supply Air Temperature {C}
  11.11,                                  !- Zone Cooling Design Supply Air Temperature Difference {deltaC}
  SupplyAirTemperature,                   !- Zone Heating Design Supply Air Temperature Input Method
  40,                                     !- Zone Heating Design Supply Air Temperature {C}
  11.11,                                  !- Zone Heating Design Supply Air Temperature Difference {deltaC}
  0.0085,                                 !- Zone Cooling Design Supply Air Humidity Ratio {kg-H2O/kg-air}
  0.008,                                  !- Zone Heating Design Supply Air Humidity Ratio {kg-H2O/kg-air}
  ,                                       !- Zone Heating Sizing Factor
  ,                                       !- Zone Cooling Sizing Factor
  DesignDay,                              !- Cooling Design Air Flow Method
  ,                                       !- Cooling Design Air Flow Rate {m3/s}
  ,                                       !- Cooling Minimum Air Flow per Zone Floor Area {m3/s-m2}
  ,                                       !- Cooling Minimum Air Flow {m3/s}
  ,                                       !- Cooling Minimum Air Flow Fraction
  DesignDay,                              !- Heating Design Air Flow Method
  ,                                       !- Heating Design Air Flow Rate {m3/s}
  ,                                       !- Heating Maximum Air Flow per Zone Floor Area {m3/s-m2}
  ,                                       !- Heating Maximum Air Flow {m3/s}
  ,                                       !- Heating Maximum Air Flow Fraction
  No,                                     !- Account for Dedicated Outdoor Air System
  NeutralSupplyAir,                       !- Dedicated Outdoor Air System Control Strategy
  autosize,                               !- Dedicated Outdoor Air Low Setpoint Temperature for Design {C}
  autosize,                               !- Dedicated Outdoor Air High Setpoint Temperature for Design {C}
  Sensible Load Only No Latent Load,      !- Zone Load Sizing Method
  HumidityRatioDifference,                !- Zone Latent Cooling Design Supply Air Humidity Ratio Input Method
  ,                                       !- Zone Dehumidification Design Supply Air Humidity Ratio {kgWater/kgDryAir}
  0.005,                                  !- Zone Cooling Design Supply Air Humidity Ratio Difference {kgWater/kgDryAir}
  HumidityRatioDifference,                !- Zone Latent Heating Design Supply Air Humidity Ratio Input Method
  ,                                       !- Zone Humidification Design Supply Air Humidity Ratio {kgWater/kgDryAir}
  0.005,                                  !- Zone Humidification Design Supply Air Humidity Ratio Difference {kgWater/kgDryAir}
  ,                                       !- Zone Humidistat Dehumidification Set Point Schedule Name
  ,                                       !- Zone Humidistat Humidification Set Point Schedule Name
  ,                                       !- Design Zone Air Distribution Effectiveness in Cooling Mode
  ,                                       !- Design Zone Air Distribution Effectiveness in Heating Mode
  ,                                       !- Design Zone Secondary Recirculation Fraction {dimensionless}
  ,                                       !- Design Minimum Zone Ventilation Efficiency {dimensionless}
  Coincident;                             !- Sizing Option

OS:ZoneHVAC:EquipmentList,
  {9d53792b-42b4-4f6c-b808-4ebbbe03ddcb}, !- Handle
  Zone HVAC Equipment List 1,             !- Name
  {96c0a689-0384-4b60-8c07-c1b75ead1ae9}, !- Thermal Zone
  ,                                       !- Load Distribution Scheme
  {0ea5d0ea-09c4-469d-9a75-dbb888507b8b}, !- Zone Equipment 1
  1,                                      !- Zone Equipment Cooling Sequence 1
  1,                                      !- Zone Equipment Heating or No-Load Sequence 1
  {117685ac-1756-42ed-9105-e3882923be95}, !- Zone Equipment Sequential Cooling Fraction Schedule Name 1
  {3fb4b32a-b8b8-4f38-8f00-b4f8b6124186}; !- Zone Equipment Sequential Heating Fraction Schedule Name 1

OS:AdditionalProperties,
  {d6a6e67c-bab3-49bb-aa37-357209c386c4}, !- Handle
  {96c0a689-0384-4b60-8c07-c1b75ead1ae9}, !- Object Name
  ObjectType,                             !- Feature Name 1
  String,                                 !- Feature Data Type 1
  conditioned space;                      !- Feature Value 1

OS:Space,
  {df8628bc-650a-4509-96c1-518b7ffdcb36}, !- Handle
  conditioned space 1,                    !- Name
  ,                                       !- Space Type Name
  ,                                       !- Default Construction Set Name
  ,                                       !- Default Schedule Set Name
  ,                                       !- Direction of Relative North {deg}
  ,                                       !- X Origin {m}
  ,                                       !- Y Origin {m}
  ,                                       !- Z Origin {m}
  ,                                       !- Building Story Name
  {96c0a689-0384-4b60-8c07-c1b75ead1ae9}, !- Thermal Zone Name
  ,                                       !- Part of Total Floor Area
  ,                                       !- Design Specification Outdoor Air Object Name
  ,                                       !- Building Unit Name
  692.06373070848;                        !- Volume {m3}

OS:Schedule:Ruleset,
  {4cff0246-eb89-40bb-a393-667ae30789bf}, !- Handle
  heating setpoint,                       !- Name
  {a3f01674-a440-4344-aa86-313687732ef6}, !- Schedule Type Limits Name
  {afee11c5-17e6-4cf8-aaf2-0a54a30e2c0f}; !- Default Day Schedule Name

OS:Schedule:Day,
  {afee11c5-17e6-4cf8-aaf2-0a54a30e2c0f}, !- Handle
  heating setpoint default day,           !- Name
  {a3f01674-a440-4344-aa86-313687732ef6}, !- Schedule Type Limits Name
  ,                                       !- Interpolate to Timestep
  24,                                     !- Hour 1
  0,                                      !- Minute 1
  0;                                      !- Value Until Time 1

OS:Schedule:Rule,
  {70278622-e8a4-4fff-8054-fe3e16dcfb7d}, !- Handle
  heating setpoint allday rule,           !- Name
  {4cff0246-eb89-40bb-a393-667ae30789bf}, !- Schedule Ruleset Name
  0,                                      !- Rule Order
  {0fa1edbe-8ccf-4f48-b69d-adae0a2ab9f1}, !- Day Schedule Name
  Yes,                                    !- Apply Sunday
  Yes,                                    !- Apply Monday
  Yes,                                    !- Apply Tuesday
  Yes,                                    !- Apply Wednesday
  Yes,                                    !- Apply Thursday
  Yes,                                    !- Apply Friday
  Yes,                                    !- Apply Saturday
  DateRange,                              !- Date Specification Type
  1,                                      !- Start Month
  1,                                      !- Start Day
  12,                                     !- End Month
  31;                                     !- End Day

OS:Schedule:Day,
  {0fa1edbe-8ccf-4f48-b69d-adae0a2ab9f1}, !- Handle
  heating setpoint day,                   !- Name
  {a3f01674-a440-4344-aa86-313687732ef6}, !- Schedule Type Limits Name
  ,                                       !- Interpolate to Timestep
  24,                                     !- Hour 1
  0,                                      !- Minute 1
  20;                                     !- Value Until Time 1

OS:Schedule:Ruleset,
  {af88ebea-98db-4133-b105-0810d4ad37e7}, !- Handle
  cooling setpoint,                       !- Name
  {a3f01674-a440-4344-aa86-313687732ef6}, !- Schedule Type Limits Name
  {167cf86d-f86b-4218-a307-f3acb4146afe}; !- Default Day Schedule Name

OS:Schedule:Day,
  {167cf86d-f86b-4218-a307-f3acb4146afe}, !- Handle
  cooling setpoint default day,           !- Name
  {a3f01674-a440-4344-aa86-313687732ef6}, !- Schedule Type Limits Name
  ,                                       !- Interpolate to Timestep
  24,                                     !- Hour 1
  0,                                      !- Minute 1
  0;                                      !- Value Until Time 1

OS:Schedule:Rule,
  {d21fdf27-b761-422a-be0d-e6b6e8feb7cc}, !- Handle
  cooling setpoint allday rule,           !- Name
  {af88ebea-98db-4133-b105-0810d4ad37e7}, !- Schedule Ruleset Name
  0,                                      !- Rule Order
  {8402807e-aa22-4729-9523-267302db1d7e}, !- Day Schedule Name
  Yes,                                    !- Apply Sunday
  Yes,                                    !- Apply Monday
  Yes,                                    !- Apply Tuesday
  Yes,                                    !- Apply Wednesday
  Yes,                                    !- Apply Thursday
  Yes,                                    !- Apply Friday
  Yes,                                    !- Apply Saturday
  DateRange,                              !- Date Specification Type
  1,                                      !- Start Month
  1,                                      !- Start Day
  12,                                     !- End Month
  31;                                     !- End Day

OS:Schedule:Day,
  {8402807e-aa22-4729-9523-267302db1d7e}, !- Handle
  cooling setpoint day,                   !- Name
  {a3f01674-a440-4344-aa86-313687732ef6}, !- Schedule Type Limits Name
  ,                                       !- Interpolate to Timestep
  24,                                     !- Hour 1
  0,                                      !- Minute 1
  25.5555555555556;                       !- Value Until Time 1

OS:ThermostatSetpoint:DualSetpoint,
  {5cc2e636-33e0-4d62-bc12-2d368420599b}, !- Handle
  conditioned space temperature setpoint, !- Name
  {4cff0246-eb89-40bb-a393-667ae30789bf}, !- Heating Setpoint Temperature Schedule Name
  {af88ebea-98db-4133-b105-0810d4ad37e7}, !- Cooling Setpoint Temperature Schedule Name
  0;                                      !- Temperature Difference Between Cutout And Setpoint {deltaC}

OS:ScheduleTypeLimits,
  {a3f01674-a440-4344-aa86-313687732ef6}, !- Handle
  Temperature,                            !- Name
  ,                                       !- Lower Limit Value
  ,                                       !- Upper Limit Value
  Continuous,                             !- Numeric Type
  Temperature;                            !- Unit Type

OS:Surface,
  {09544d12-edf9-4770-9e21-9c34ebfba055}, !- Handle
  Roof1,                                  !- Name
  RoofCeiling,                            !- Surface Type
  {131752e9-4e4e-416c-8d48-24c022314705}, !- Construction Name
  {df8628bc-650a-4509-96c1-518b7ffdcb36}, !- Space Name
  Outdoors,                               !- Outside Boundary Condition
  ,                                       !- Outside Boundary Condition Object
  SunExposed,                             !- Sun Exposure
  WindExposed,                            !- Wind Exposure
  ,                                       !- View Factor to Ground
  ,                                       !- Number of Vertices
  -8.42346109387347, 8.42346109387347, 3.048, !- X,Y,Z Vertex 1 {m}
  -8.42346109387347, -8.42346109387347, 3.048, !- X,Y,Z Vertex 2 {m}
  8.42346109387347, -8.42346109387347, 3.048, !- X,Y,Z Vertex 3 {m}
  8.42346109387347, 8.42346109387347, 3.048; !- X,Y,Z Vertex 4 {m}

OS:AdditionalProperties,
  {d05ed18f-c5c7-4389-bd67-6b52632f4733}, !- Handle
  {09544d12-edf9-4770-9e21-9c34ebfba055}, !- Object Name
  Length,                                 !- Feature Name 1
  Double,                                 !- Feature Data Type 1
  55.27205442174192,                      !- Feature Value 1
  Width,                                  !- Feature Name 2
  Double,                                 !- Feature Data Type 2
  55.272054421741913,                     !- Feature Value 2
  Azimuth,                                !- Feature Name 3
  Integer,                                !- Feature Data Type 3
  0,                                      !- Feature Value 3
  Tilt,                                   !- Feature Name 4
  Double,                                 !- Feature Data Type 4
  0,                                      !- Feature Value 4
  SurfaceType,                            !- Feature Name 5
  String,                                 !- Feature Data Type 5
  Roof;                                   !- Feature Value 5

OS:Material,
  {519e8755-e94c-458e-ab4d-c5193c1c99ec}, !- Handle
  asphalt or fiberglass shingles,         !- Name
  Rough,                                  !- Roughness
  0.00635,                                !- Thickness {m}
  0.162714,                               !- Conductivity {W/m-K}
  1121.4,                                 !- Density {kg/m3}
  1465.45,                                !- Specific Heat {J/kg-K}
  0.9,                                    !- Thermal Absorptance
  0.85,                                   !- Solar Absorptance
  0.85;                                   !- Visible Absorptance

OS:Material,
  {60185d8e-0f0c-46ea-8982-c63be5f34f4f}, !- Handle
  roof stud and cavity,                   !- Name
  Rough,                                  !- Roughness
  0.0889,                                 !- Thickness {m}
  0.491900632004487,                      !- Conductivity {W/m-K}
  50.32683,                               !- Density {kg/m3}
  1063.80987585548,                       !- Specific Heat {J/kg-K}
  0.9,                                    !- Thermal Absorptance
  0.7,                                    !- Solar Absorptance
  0.7;                                    !- Visible Absorptance

OS:Material,
  {be1ea0ad-3dee-427a-a33b-648a2acce08d}, !- Handle
  gypsum board,                           !- Name
  Rough,                                  !- Roughness
  0.00254,                                !- Thickness {m}
  0.1602906,                              !- Conductivity {W/m-K}
  801,                                    !- Density {kg/m3}
  837.4,                                  !- Specific Heat {J/kg-K}
  0.9,                                    !- Thermal Absorptance
  0.6,                                    !- Solar Absorptance
  0.6;                                    !- Visible Absorptance

OS:Construction,
  {131752e9-4e4e-416c-8d48-24c022314705}, !- Handle
  Roof1 construction,                     !- Name
  ,                                       !- Surface Rendering Name
  {519e8755-e94c-458e-ab4d-c5193c1c99ec}, !- Layer 1
  {60185d8e-0f0c-46ea-8982-c63be5f34f4f}, !- Layer 2
  {be1ea0ad-3dee-427a-a33b-648a2acce08d}; !- Layer 3

OS:Surface,
  {f47feea0-52d7-4877-9a6f-64cffcff0f81}, !- Handle
  Wall1,                                  !- Name
  Wall,                                   !- Surface Type
  {d4308c28-1671-4917-8b17-0c6db7f07eea}, !- Construction Name
  {df8628bc-650a-4509-96c1-518b7ffdcb36}, !- Space Name
  Outdoors,                               !- Outside Boundary Condition
  ,                                       !- Outside Boundary Condition Object
  SunExposed,                             !- Sun Exposure
  WindExposed,                            !- Wind Exposure
  ,                                       !- View Factor to Ground
  ,                                       !- Number of Vertices
  -13.6265098242187, 15.6365136527044, 0.6096, !- X,Y,Z Vertex 1 {m}
  -13.6265098242187, 15.6365136527044, 3.048, !- X,Y,Z Vertex 2 {m}
  5.90736017578134, 15.6365136527044, 3.048, !- X,Y,Z Vertex 3 {m}
  5.90736017578134, 15.6365136527044, 0.6096; !- X,Y,Z Vertex 4 {m}

OS:AdditionalProperties,
  {d7d8566e-b3e1-4550-8d93-0b7395610326}, !- Handle
  {f47feea0-52d7-4877-9a6f-64cffcff0f81}, !- Object Name
  Length,                                 !- Feature Name 1
  Double,                                 !- Feature Data Type 1
  64.087499999999991,                     !- Feature Value 1
  Azimuth,                                !- Feature Name 2
  Integer,                                !- Feature Data Type 2
  0,                                      !- Feature Value 2
  Tilt,                                   !- Feature Name 3
  Double,                                 !- Feature Data Type 3
  90,                                     !- Feature Value 3
  SurfaceType,                            !- Feature Name 4
  String,                                 !- Feature Data Type 4
  Wall;                                   !- Feature Value 4

OS:Material,
  {0a1407b2-3605-4290-96f9-7904c09bdb81}, !- Handle
  wood siding,                            !- Name
  Rough,                                  !- Roughness
  0.0254,                                 !- Thickness {m}
  0.1024175,                              !- Conductivity {W/m-K}
  544.68,                                 !- Density {kg/m3}
  1172.36,                                !- Specific Heat {J/kg-K}
  0.9,                                    !- Thermal Absorptance
  0.7,                                    !- Solar Absorptance
  0.7;                                    !- Visible Absorptance

OS:Material,
  {4237d0c2-4da9-4466-839c-c5e961b4e7ff}, !- Handle
  osb sheathing 0.5 in.,                  !- Name
  Rough,                                  !- Roughness
  0.0127,                                 !- Thickness {m}
  0.1154577,                              !- Conductivity {W/m-K}
  512.64,                                 !- Density {kg/m3}
  1214.23,                                !- Specific Heat {J/kg-K}
  0.9,                                    !- Thermal Absorptance
  0.7,                                    !- Solar Absorptance
  0.7;                                    !- Visible Absorptance

OS:Material,
  {f7fcd7b0-a555-4907-8210-d74ded645040}, !- Handle
  wall stud and cavity,                   !- Name
  Rough,                                  !- Roughness
  0.1397,                                 !- Thickness {m}
  0.0929021674204099,                     !- Conductivity {W/m-K}
  139.0536,                               !- Density {kg/m3}
  1170.23755760369,                       !- Specific Heat {J/kg-K}
  0.9,                                    !- Thermal Absorptance
  0.7,                                    !- Solar Absorptance
  0.7;                                    !- Visible Absorptance

OS:Material,
  {53108731-ce63-4fb4-8699-7e733ff6487b}, !- Handle
  gypsum board 1,                         !- Name
  Rough,                                  !- Roughness
  0.0127,                                 !- Thickness {m}
  0.1602906,                              !- Conductivity {W/m-K}
  801,                                    !- Density {kg/m3}
  837.4,                                  !- Specific Heat {J/kg-K}
  0.9,                                    !- Thermal Absorptance
  0.6,                                    !- Solar Absorptance
  0.6;                                    !- Visible Absorptance

OS:Construction,
  {d4308c28-1671-4917-8b17-0c6db7f07eea}, !- Handle
  Wall1 construction,                     !- Name
  ,                                       !- Surface Rendering Name
  {0a1407b2-3605-4290-96f9-7904c09bdb81}, !- Layer 1
  {4237d0c2-4da9-4466-839c-c5e961b4e7ff}, !- Layer 2
  {f7fcd7b0-a555-4907-8210-d74ded645040}, !- Layer 3
  {53108731-ce63-4fb4-8699-7e733ff6487b}; !- Layer 4

OS:Surface,
  {b21b33b3-dbc1-4605-b052-66aa157fd807}, !- Handle
  Wall2,                                  !- Name
  Wall,                                   !- Surface Type
  {24609d77-2747-49fb-b0f3-4689cb61daba}, !- Construction Name
  {df8628bc-650a-4509-96c1-518b7ffdcb36}, !- Space Name
  Outdoors,                               !- Outside Boundary Condition
  ,                                       !- Outside Boundary Condition Object
  SunExposed,                             !- Sun Exposure
  WindExposed,                            !- Wind Exposure
  ,                                       !- View Factor to Ground
  ,                                       !- Number of Vertices
  15.6365136527044, -0.538581714242879, 0.6096, !- X,Y,Z Vertex 1 {m}
  15.6365136527044, -0.538581714242879, 3.048, !- X,Y,Z Vertex 2 {m}
  15.6365136527044, -10.3074217142429, 3.048, !- X,Y,Z Vertex 3 {m}
  15.6365136527044, -10.3074217142429, 0.6096; !- X,Y,Z Vertex 4 {m}

OS:AdditionalProperties,
  {1ad1fee6-c1fa-43ce-8e9d-612cdae1efd3}, !- Handle
  {b21b33b3-dbc1-4605-b052-66aa157fd807}, !- Object Name
  Length,                                 !- Feature Name 1
  Double,                                 !- Feature Data Type 1
  32.049999999999997,                     !- Feature Value 1
  Azimuth,                                !- Feature Name 2