
OS:Version,
  {e14f0d38-0682-43d6-a6ae-2204ae66303f}, !- Handle
  3.10.0;                                 !- Version Identifier

OS:SimulationControl,
  {f36c67a1-8820-494c-be66-45d3eeb0c8c9}, !- Handle
  ,                                       !- Do Zone Sizing Calculation
  ,                                       !- Do System Sizing Calculation
  ,                                       !- Do Plant Sizing Calculation
  No;                                     !- Run Simulation for Sizing Periods

OS:Timestep,
  {48a020ed-422d-498f-9efe-b414a39de7bf}, !- Handle
  1;                                      !- Number of Timesteps per Hour

OS:ShadowCalculation,
  {18054703-2180-4e0e-b706-72e63010ccd0}, !- Handle
  PolygonClipping,                        !- Shading Calculation Method
  ,                                       !- Shading Calculation Update Frequency Method
  20,                                     !- Shading Calculation Update Frequency
  200,                                    !- Maximum Figures in Shadow Overlap Calculations
  ,                                       !- Polygon Clipping Algorithm
  512,                                    !- Pixel Counting Resolution
  ,                                       !- Sky Diffuse Modeling Algorithm
  No,                                     !- Output External Shading Calculation Results
  No,                                     !- Disable Self-Shading Within Shading Zone Groups
  No;                                     !- Disable Self-Shading From Shading Zone Groups to Other Zones

OS:SurfaceConvectionAlgorithm:Outside,
  {21c95098-2834-40fd-a8d9-97b390236714}, !- Handle
  DOE-2;                                  !- Algorithm

OS:SurfaceConvectionAlgorithm:Inside,
  {7978fa79-45dc-4bb6-92f2-30a50fc69d29}, !- Handle
  TARP;                                   !- Algorithm

OS:ZoneCapacitanceMultiplier:ResearchSpecial,
  {66b36c96-3309-4e77-8631-65753461dae3}, !- Handle
  7,                                      !- Temperature Capacity Multiplier
  15,                                     !- Humidity Capacity Multiplier
  ;                                       !- Carbon Dioxide Capacity Multiplier

OS:ConvergenceLimits,
  {e57427b4-10a3-4d31-b5b2-f19377de8dc9}, !- Handle
  0;                                      !- Minimum System Timestep {minutes}

OS:RunPeriod,
  {173c1514-b325-47d0-aaec-ee66e21328e0}, !- Handle
  Run Period 1,                           !- Name
  1,                                      !- Begin Month
  1,                                      !- Begin Day of Month
  12,                                     !- End Month
  31,                                     !- End Day of Month
  ,                                       !- Use Weather File Holidays and Special Days
  ,                                       !- Use Weather File Daylight Saving Period
  ,                                       !- Apply Weekend Holiday Rule
  ,                                       !- Use Weather File Rain Indicators
  ,                                       !- Use Weather File Snow Indicators
  ;                                       !- Number of Times Runperiod to be Repeated

OS:PerformancePrecisionTradeoffs,
  {040f9663-0cf1-4250-a8bc-76995eb8de02}, !- Handle
  ,                                       !- Use Coil Direct Solutions
  CarrollMRT;                             !- Zone Radiant Exchange Algorithm

OS:WeatherFile,
  {5ca95111-2d1f-4997-b27d-7447c26d9222}, !- Handle
  Buffalo Niagara Intl Ap,                !- City
  NY,                                     !- State Province Region
  USA,                                    !- Country
  TMY3,                                   !- Data Source
  725280,                                 !- WMO Number
  42.93,                                  !- Latitude {deg}
  -78.73,                                 !- Longitude {deg}
  -5,                                     !- Time Zone {hr}
  215,                                    !- Elevation {m}
  /Users/nmoore/github/urbanopt-example-geojson-project/example_project/weather/USA_NY_Buffalo-Greater.Buffalo.Intl.AP.725280_TMY3.epw, !- Url
  6B50E0FF,                               !- Checksum
  ,                                       !- Start Date Actual Year
  Sunday;                                 !- Start Day of Week

OS:YearDescription,
  {30505cbd-a23e-43d1-b009-5c933ef19040}, !- Handle
  2007,                                   !- Calendar Year
  ,                                       !- Day of Week for Start Day
  ;                                       !- Is Leap Year

OS:Site,
  {b23ce12d-6658-4a20-95f4-02bc6bc57759}, !- Handle
  Buffalo Niagara Intl Ap_NY,             !- Name
  42.93,                                  !- Latitude {deg}
  -78.73,                                 !- Longitude {deg}
  -5,                                     !- Time Zone {hr}
  215,                                    !- Elevation {m}
  Suburbs,                                !- Terrain
  Yes;                                    !- Keep Site Location Information

OS:RunPeriodControl:DaylightSavingTime,
  {ba23eecf-5c8a-4232-911f-e05e2f965c54}, !- Handle
  Mar 12,                                 !- Start Date
  Nov 5;                                  !- End Date

OS:Site:GroundTemperature:Shallow,
  {4f39a232-859b-4721-b4c5-c9daa071df9e}, !- Handle
  4.30207395723828,                       !- January Surface Ground Temperature {C}
  2.29327249652502,                       !- February Surface Ground Temperature {C}
  2.13240047156047,                       !- March Surface Ground Temperature {C}
  3.08567940719286,                       !- April Surface Ground Temperature {C}
  6.91256312497526,                       !- May Surface Ground Temperature {C}
  10.7216195949507,                       !- June Surface Ground Temperature {C}
  14.0238679822574,                       !- July Surface Ground Temperature {C}
  16.1157611184724,                       !- August Surface Ground Temperature {C}
  16.2934789303462,                       !- September Surface Ground Temperature {C}
  14.5920754632847,                       !- October Surface Ground Temperature {C}
  11.374036348653,                        !- November Surface Ground Temperature {C}
  7.68182621661674;                       !- December Surface Ground Temperature {C}

OS:ThermalZone,
  {cfbfc9c6-c672-4200-9a67-46fa9e640a52}, !- Handle
  conditioned space,                      !- Name
  1,                                      !- Multiplier
  ,                                       !- Ceiling Height {m}
  692.06373070848,                        !- Volume {m3}
  ,                                       !- Floor Area {m2}
  ,                                       !- Zone Inside Convection Algorithm
  ,                                       !- Zone Outside Convection Algorithm
  ,                                       !- Zone Conditioning Equipment List Name
  {857d83dc-3d42-486c-b4e0-824134eab3d4}, !- Zone Air Inlet Port List
  {ff04a2c8-7ca7-488e-b545-2fbe31184e93}, !- Zone Air Exhaust Port List
  {b8a79f61-1b4a-49ee-a212-64af42b94a17}, !- Zone Air Node Name
  {bba62baa-eec1-40c3-8a71-f820911de45e}, !- Zone Return Air Port List
  ,                                       !- Primary Daylighting Control Name
  ,                                       !- Fraction of Zone Controlled by Primary Daylighting Control
  ,                                       !- Secondary Daylighting Control Name
  ,                                       !- Fraction of Zone Controlled by Secondary Daylighting Control
  ,                                       !- Illuminance Map Name
  ,                                       !- Group Rendering Name
  {2de69fb8-2b45-4055-82e9-8df5f44cb9e1}, !- Thermostat Name
  No;                                     !- Use Ideal Air Loads

OS:Node,
  {973c5063-531a-4431-b85b-981698081373}, !- Handle
  Node 1,                                 !- Name
  {b8a79f61-1b4a-49ee-a212-64af42b94a17}, !- Inlet Port
  ;                                       !- Outlet Port

OS:Connection,
  {b8a79f61-1b4a-49ee-a212-64af42b94a17}, !- Handle
  {cfbfc9c6-c672-4200-9a67-46fa9e640a52}, !- Source Object
  11,                                     !- Outlet Port
  {973c5063-531a-4431-b85b-981698081373}, !- Target Object
  2;                                      !- Inlet Port

OS:PortList,
  {857d83dc-3d42-486c-b4e0-824134eab3d4}, !- Handle
  {cfbfc9c6-c672-4200-9a67-46fa9e640a52}, !- HVAC Component
  {2e229e5f-4d03-40bc-84b8-ba739f1db968}; !- Port 1

OS:PortList,
  {ff04a2c8-7ca7-488e-b545-2fbe31184e93}, !- Handle
  {cfbfc9c6-c672-4200-9a67-46fa9e640a52}; !- HVAC Component

OS:PortList,
  {bba62baa-eec1-40c3-8a71-f820911de45e}, !- Handle
  {cfbfc9c6-c672-4200-9a67-46fa9e640a52}, !- HVAC Component
  {19a765b1-16ac-4526-97cd-c6900d5ddea3}; !- Port 1

OS:Sizing:Zone,
  {d25a9dd8-8f17-4f46-9b7e-9e17799cb146}, !- Handle
  {cfbfc9c6-c672-4200-9a67-46fa9e640a52}, !- Zone or ZoneList Name
  SupplyAirTemperature,                   !- Zone Cooling Design Supply Air Temperature Input Method
  14,                                     !- Zone Cooling Design Supply Air Temperature {C}
  11.11,                                  !- Zone Cooling Design Supply Air Temperature Difference {deltaC}
  SupplyAirTemperature,                   !- Zone Heating Design Supply Air Temperature Input Method
  40,                                     !- Zone Heating Design Supply Air Temperature {C}
  11.11,                                  !- Zone Heating Design Supply Air Temperature Difference {deltaC}
  0.0085,                                 !- Zone Cooling Design Supply Air Humidity Ratio {kg-H2O/kg-air}
  0.008,                                  !- Zone Heating Design Supply Air Humidity Ratio {kg-H2O/kg-air}
  ,                                       !- Zone Heating Sizing Factor
  ,                                       !- Zone Cooling Sizing Factor
  DesignDay,                              !- Cooling Design Air Flow Method
  ,                                       !- Cooling Design Air Flow Rate {m3/s}
  ,                                       !- Cooling Minimum Air Flow per Zone Floor Area {m3/s-m2}
  ,                                       !- Cooling Minimum Air Flow {m3/s}
  ,                                       !- Cooling Minimum Air Flow Fraction
  DesignDay,                              !- Heating Design Air Flow Method
  ,                                       !- Heating Design Air Flow Rate {m3/s}
  ,                                       !- Heating Maximum Air Flow per Zone Floor Area {m3/s-m2}
  ,                                       !- Heating Maximum Air Flow {m3/s}
  ,                                       !- Heating Maximum Air Flow Fraction
  No,                                     !- Account for Dedicated Outdoor Air System
  NeutralSupplyAir,                       !- Dedicated Outdoor Air System Control Strategy
  autosize,                               !- Dedicated Outdoor Air Low Setpoint Temperature for Design {C}
  autosize,                               !- Dedicated Outdoor Air High Setpoint Temperature for Design {C}
  Sensible Load Only No Latent Load,      !- Zone Load Sizing Method
  HumidityRatioDifference,                !- Zone Latent Cooling Design Supply Air Humidity Ratio Input Method
  ,                                       !- Zone Dehumidification Design Supply Air Humidity Ratio {kgWater/kgDryAir}
  0.005,                                  !- Zone Cooling Design Supply Air Humidity Ratio Difference {kgWater/kgDryAir}
  HumidityRatioDifference,                !- Zone Latent Heating Design Supply Air Humidity Ratio Input Method
  ,                                       !- Zone Humidification Design Supply Air Humidity Ratio {kgWater/kgDryAir}
  0.005,                                  !- Zone Humidification Design Supply Air Humidity Ratio Difference {kgWater/kgDryAir}
  ,                                       !- Zone Humidistat Dehumidification Set Point Schedule Name
  ,                                       !- Zone Humidistat Humidification Set Point Schedule Name
  ,                                       !- Design Zone Air Distribution Effectiveness in Cooling Mode
  ,                                       !- Design Zone Air Distribution Effectiveness in Heating Mode
  ,                                       !- Design Zone Secondary Recirculation Fraction {dimensionless}
  ,                                       !- Design Minimum Zone Ventilation Efficiency {dimensionless}
  Coincident;                             !- Sizing Option

OS:ZoneHVAC:EquipmentList,
  {ab7a0de1-e55e-417b-98e2-791fe71fd97e}, !- Handle
  Zone HVAC Equipment List 1,             !- Name
  {cfbfc9c6-c672-4200-9a67-46fa9e640a52}, !- Thermal Zone
  ,                                       !- Load Distribution Scheme
  {65136a74-15e9-4e98-871b-d5101a0fa454}, !- Zone Equipment 1
  1,                                      !- Zone Equipment Cooling Sequence 1
  1,                                      !- Zone Equipment Heating or No-Load Sequence 1
  {9c134461-deea-4eaf-955f-2809238d723f}, !- Zone Equipment Sequential Cooling Fraction Schedule Name 1
  {df613185-df60-4944-b1cb-ff381ea3f521}; !- Zone Equipment Sequential Heating Fraction Schedule Name 1

OS:AdditionalProperties,
  {42b54d50-a57a-48c4-9b23-9911a844d621}, !- Handle
  {cfbfc9c6-c672-4200-9a67-46fa9e640a52}, !- Object Name
  ObjectType,                             !- Feature Name 1
  String,                                 !- Feature Data Type 1
  conditioned space;                      !- Feature Value 1

OS:Space,
  {46af72e3-4b97-4088-b9db-bd26a0baf353}, !- Handle
  conditioned space 1,                    !- Name
  ,                                       !- Space Type Name
  ,                                       !- Default Construction Set Name
  ,                                       !- Default Schedule Set Name
  ,                                       !- Direction of Relative North {deg}
  ,                                       !- X Origin {m}
  ,                                       !- Y Origin {m}
  ,                                       !- Z Origin {m}
  ,                                       !- Building Story Name
  {cfbfc9c6-c672-4200-9a67-46fa9e640a52}, !- Thermal Zone Name
  ,                                       !- Part of Total Floor Area
  ,                                       !- Design Specification Outdoor Air Object Name
  ,                                       !- Building Unit Name
  692.06373070848;                        !- Volume {m3}

OS:Schedule:Ruleset,
  {1bc7ecf2-2966-4ca0-b771-f155008a86e9}, !- Handle
  heating setpoint,                       !- Name
  {76b1a950-d291-4524-80e7-076bcff9ca55}, !- Schedule Type Limits Name
  {d0fb3876-0199-4b6a-ac1a-c5783bed0792}; !- Default Day Schedule Name

OS:Schedule:Day,
  {d0fb3876-0199-4b6a-ac1a-c5783bed0792}, !- Handle
  heating setpoint default day,           !- Name
  {76b1a950-d291-4524-80e7-076bcff9ca55}, !- Schedule Type Limits Name
  ,                                       !- Interpolate to Timestep
  24,                                     !- Hour 1
  0,                                      !- Minute 1
  0;                                      !- Value Until Time 1

OS:Schedule:Rule,
  {760c0e96-2af7-42af-b5f5-48c1e5ddf881}, !- Handle
  heating setpoint allday rule,           !- Name
  {1bc7ecf2-2966-4ca0-b771-f155008a86e9}, !- Schedule Ruleset Name
  0,                                      !- Rule Order
  {682e42b6-b30c-4d3f-9523-e573ea5bfd92}, !- Day Schedule Name
  Yes,                                    !- Apply Sunday
  Yes,                                    !- Apply Monday
  Yes,                                    !- Apply Tuesday
  Yes,                                    !- Apply Wednesday
  Yes,                                    !- Apply Thursday
  Yes,                                    !- Apply Friday
  Yes,                                    !- Apply Saturday
  DateRange,                              !- Date Specification Type
  1,                                      !- Start Month
  1,                                      !- Start Day
  12,                                     !- End Month
  31;                                     !- End Day

OS:Schedule:Day,
  {682e42b6-b30c-4d3f-9523-e573ea5bfd92}, !- Handle
  heating setpoint day,                   !- Name
  {76b1a950-d291-4524-80e7-076bcff9ca55}, !- Schedule Type Limits Name
  ,                                       !- Interpolate to Timestep
  24,                                     !- Hour 1
  0,                                      !- Minute 1
  20;                                     !- Value Until Time 1

OS:Schedule:Ruleset,
  {88e3f694-7e90-44a9-8654-c701831de871}, !- Handle
  cooling setpoint,                       !- Name
  {76b1a950-d291-4524-80e7-076bcff9ca55}, !- Schedule Type Limits Name
  {feed003c-93b4-4205-abe5-ea2ae1b20fe5}; !- Default Day Schedule Name

OS:Schedule:Day,
  {feed003c-93b4-4205-abe5-ea2ae1b20fe5}, !- Handle
  cooling setpoint default day,           !- Name
  {76b1a950-d291-4524-80e7-076bcff9ca55}, !- Schedule Type Limits Name
  ,                                       !- Interpolate to Timestep
  24,                                     !- Hour 1
  0,                                      !- Minute 1
  0;                                      !- Value Until Time 1

OS:Schedule:Rule,
  {a2be8c35-2e5f-4e77-8c4b-bea3efac2604}, !- Handle
  cooling setpoint allday rule,           !- Name
  {88e3f694-7e90-44a9-8654-c701831de871}, !- Schedule Ruleset Name
  0,                                      !- Rule Order
  {dfc81b70-752f-4de1-8699-5941a8858019}, !- Day Schedule Name
  Yes,                                    !- Apply Sunday
  Yes,                                    !- Apply Monday
  Yes,                                    !- Apply Tuesday
  Yes,                                    !- Apply Wednesday
  Yes,                                    !- Apply Thursday
  Yes,                                    !- Apply Friday
  Yes,                                    !- Apply Saturday
  DateRange,                              !- Date Specification Type
  1,                                      !- Start Month
  1,                                      !- Start Day
  12,                                     !- End Month
  31;                                     !- End Day

OS:Schedule:Day,
  {dfc81b70-752f-4de1-8699-5941a8858019}, !- Handle
  cooling setpoint day,                   !- Name
  {76b1a950-d291-4524-80e7-076bcff9ca55}, !- Schedule Type Limits Name
  ,                                       !- Interpolate to Timestep
  24,                                     !- Hour 1
  0,                                      !- Minute 1
  25.5555555555556;                       !- Value Until Time 1

OS:ThermostatSetpoint:DualSetpoint,
  {2de69fb8-2b45-4055-82e9-8df5f44cb9e1}, !- Handle
  conditioned space temperature setpoint, !- Name
  {1bc7ecf2-2966-4ca0-b771-f155008a86e9}, !- Heating Setpoint Temperature Schedule Name
  {88e3f694-7e90-44a9-8654-c701831de871}, !- Cooling Setpoint Temperature Schedule Name
  0;                                      !- Temperature Difference Between Cutout And Setpoint {deltaC}

OS:ScheduleTypeLimits,
  {76b1a950-d291-4524-80e7-076bcff9ca55}, !- Handle
  Temperature,                            !- Name
  ,                                       !- Lower Limit Value
  ,                                       !- Upper Limit Value
  Continuous,                             !- Numeric Type
  Temperature;                            !- Unit Type

OS:Surface,
  {d130fe7a-4383-411d-a94a-498ab3066db8}, !- Handle
  Roof1,                                  !- Name
  RoofCeiling,                            !- Surface Type
  {1f5b89e6-2705-4f2c-899a-bf6298e2971b}, !- Construction Name
  {4ad8a7ea-d315-43d5-8a31-ad9ed2d51f3b}, !- Space Name
  Outdoors,                               !- Outside Boundary Condition
  ,                                       !- Outside Boundary Condition Object
  SunExposed,                             !- Sun Exposure
  WindExposed,                            !- Wind Exposure
  ,                                       !- View Factor to Ground
  ,                                       !- Number of Vertices
  -26.9347048849634, 58.0557891618865, 2.4384, !- X,Y,Z Vertex 1 {m}
  -26.9347048849634, 46.7895631136661, 8.0715130241102, !- X,Y,Z Vertex 2 {m}
  -14.3386812381136, 46.7895631136661, 8.0715130241102, !- X,Y,Z Vertex 3 {m}
  -14.3386812381136, 58.0557891618865, 2.4384; !- X,Y,Z Vertex 4 {m}

OS:AdditionalProperties,
  {41d3fa72-8a5d-4877-9c37-a98aa9234086}, !- Handle
  {d130fe7a-4383-411d-a94a-498ab3066db8}, !- Object Name
  Length,                                 !- Feature Name 1
  Double,                                 !- Feature Data Type 1
  41.325536899113608,                     !- Feature Value 1
  Width,                                  !- Feature Name 2
  Double,                                 !- Feature Data Type 2
  41.325536899113601,                     !- Feature Value 2
  Azimuth,                                !- Feature Name 3
  Integer,                                !- Feature Data Type 3
  0,                                      !- Feature Value 3
  Tilt,                                   !- Feature Name 4
  Double,                                 !- Feature Data Type 4
  0.5,                                    !- Feature Value 4
  SurfaceType,                            !- Feature Name 5
  String,                                 !- Feature Data Type 5
  Roof;                                   !- Feature Value 5

OS:ThermalZone,
  {c11de282-0d7c-40cb-95d1-df140367a209}, !- Handle
  attic - vented,                         !- Name
  1,                                      !- Multiplier
  ,                                       !- Ceiling Height {m}
  356.390921899745,                       !- Volume {m3}
  ,                                       !- Floor Area {m2}
  ,                                       !- Zone Inside Convection Algorithm
  ,                                       !- Zone Outside Convection Algorithm
  ,                                       !- Zone Conditioning Equipment List Name
  {7ed88537-3812-4e74-a324-630bc9104041}, !- Zone Air Inlet Port List
  {475e6343-fe36-4746-92dd-39471afd96f5}, !- Zone Air Exhaust Port List
  {fb13d149-b538-4f0f-b6d7-7dbb67c11cdc}, !- Zone Air Node Name
  {6cd7022b-f75f-4b17-83b5-445f44be0f11}, !- Zone Return Air Port List
  ,                                       !- Primary Daylighting Control Name
  ,                                       !- Fraction of Zone Controlled by Primary Daylighting Control
  ,                                       !- Secondary Daylighting Control Name
  ,                                       !- Fraction of Zone Controlled by Secondary Daylighting Control
  ,                                       !- Illuminance Map Name
  ,                                       !- Group Rendering Name
  ,                                       !- Thermostat Name
  No;                                     !- Use Ideal Air Loads

OS:Node,
  {ffba9170-d7a2-4bac-a560-502f13b59ce3}, !- Handle
  Node 2,                                 !- Name
  {fb13d149-b538-4f0f-b6d7-7dbb67c11cdc}, !- Inlet Port
  ;                                       !- Outlet Port

OS:Connection,
  {fb13d149-b538-4f0f-b6d7-7dbb67c11cdc}, !- Handle
  {c11de282-0d7c-40cb-95d1-df140367a209}, !- Source Object
  11,                                     !- Outlet Port
  {ffba9170-d7a2-4bac-a560-502f13b59ce3}, !- Target Object
  2;                                      !- Inlet Port

OS:PortList,
  {7ed88537-3812-4e74-a324-630bc9104041}, !- Handle
  {c11de282-0d7c-40cb-95d1-df140367a209}; !- HVAC Component

OS:PortList,
  {475e6343-fe36-4746-92dd-39471afd96f5}, !- Handle
  {c11de282-0d7c-40cb-95d1-df140367a209}; !- HVAC Component

OS:PortList,
  {6cd7022b-f75f-4b17-83b5-445f44be0f11}, !- Handle
  {c11de282-0d7c-40cb-95d1-df140367a209}; !- HVAC Component

OS:Sizing:Zone,
  {1a6f1379-c620-431a-bd5c-06647a0e4ce3}, !- Handle
  {c11de282-0d7c-40cb-95d1-df140367a209}, !- Zone or ZoneList Name
  SupplyAirTemperature,                   !- Zone Cooling Design Supply Air Temperature Input Method
  14,                                     !- Zone Cooling Design Supply Air Temperature {C}
  11.11,                                  !- Zone Cooling Design Supply Air Temperature Difference {deltaC}
  SupplyAirTemperature,                   !- Zone Heating Design Supply Air Temperature Input Method
  40,                                     !- Zone Heating Design Supply Air Temperature {C}
  11.11,                                  !- Zone Heating Design Supply Air Temperature Difference {deltaC}
  0.0085,                                 !- Zone Cooling Design Supply Air Humidity Ratio {kg-H2O/kg-air}
  0.008,                                  !- Zone Heating Design Supply Air Humidity Ratio {kg-H2O/kg-air}
  ,                                       !- Zone Heating Sizing Factor
  ,                                       !- Zone Cooling Sizing Factor
  DesignDay,                              !- Cooling Design Air Flow Method
  ,                                       !- Cooling Design Air Flow Rate {m3/s}
  ,                                       !- Cooling Minimum Air Flow per Zone Floor Area {m3/s-m2}
  ,                                       !- Cooling Minimum Air Flow {m3/s}
  ,                                       !- Cooling Minimum Air Flow Fraction
  DesignDay,                              !- Heating Design Air Flow Method
  ,                                       !- Heating Design Air Flow Rate {m3/s}
  ,                                       !- Heating Maximum Air Flow per Zone Floor Area {m3/s-m2}
  ,                                       !- Heating Maximum Air Flow {m3/s}
  ,                                       !- Heating Maximum Air Flow Fraction
  No,                                     !- Account for Dedicated Outdoor Air System
  NeutralSupplyAir,                       !- Dedicated Outdoor Air System Control Strategy
  autosize,                               !- Dedicated Outdoor Air Low Setpoint Temperature for Design {C}
  autosize,                               !- Dedicated Outdoor Air High Setpoint Temperature for Design {C}
  Sensible Load Only No Latent Load,      !- Zone Load Sizing Method
  HumidityRatioDifference,                !- Zone Latent Cooling Design Supply Air Humidity Ratio Input Method
  ,                                       !- Zone Dehumidification Design Supply Air Humidity Ratio {kgWater/kgDryAir}
  0.005,                                  !- Zone Cooling Design Supply Air Humidity Ratio Difference {kgWater/kgDryAir}
  HumidityRatioDifference,                !- Zone Latent Heating Design Supply Air Humidity Ratio Input Method
  ,                                       !- Zone Humidification Design Supply Air Humidity Ratio {kgWater/kgDryAir}
  0.005,                                  !- Zone Humidification Design Supply Air Humidity Ratio Difference {kgWater/kgDryAir}
  ,                                       !- Zone Humidistat Dehumidification Set Point Schedule Name
  ,                                       !- Zone Humidistat Humidification Set Point Schedule Name
  ,                                       !- Design Zone Air Distribution Effectiveness in Cooling Mode
  ,                                       !- Design Zone Air Distribution Effectiveness in Heating Mode
  ,                                       !- Design Zone Secondary Recirculation Fraction {dimensionless}
  ,                                       !- Design Minimum Zone Ventilation Efficiency {dimensionless}
  Coincident;                             !- Sizing Option

OS:ZoneHVAC:EquipmentList,
  {9eadf124-8705-4baa-b919-242ba91a8ffa}, !- Handle
  Zone HVAC Equipment List 2,             !- Name
  {c11de282-0d7c-40cb-95d1-df140367a209}; !- Thermal Zone

OS:AdditionalProperties,
  {c47ca48d-fba9-4cb9-b20d-86f17cfa7b64}, !- Handle
  {c11de282-0d7c-40cb-95d1-df140367a209}, !- Object Name
  ObjectType,                             !- Feature Name 1
  String,                                 !- Feature Data Type 1
  attic - vented;                         !- Feature Value 1

OS:Space,
  {4ad8a7ea-d315-43d5-8a31-ad9ed2d51f3b}, !- Handle
  attic - vented 1,                       !- Name
  ,                                       !- Space Type Name
  ,                                       !- Default Construction Set Name
  ,                                       !- Default Schedule Set Name
  ,                                       !- Direction of Relative North {deg}
  ,                                       !- X Origin {m}
  ,                                       !- Y Origin {m}
  ,                                       !- Z Origin {m}
  ,                                       !- Building Story Name
  {c11de282-0d7c-40cb-95d1-df140367a209}, !- Thermal Zone Name
  ,                                       !- Part of Total Floor Area
  ,                                       !- Design Specification Outdoor Air Object Name
  ,                                       !- Building Unit Name
  356.390921899745;                       !- Volume {m3}

OS:Material,
  {36d0423b-3f14-45a5-8291-07a3c5a00c19}, !- Handle
  asphalt or fiberglass shingles,         !- Name
  Rough,                                  !- Roughness
  0.00635,                                !- Thickness {m}
  0.162714,                               !- Conductivity {W/m-K}
  1121.4,                                 !- Density {kg/m3}
  1465.45,                                !- Specific Heat {J/kg-K}
  0.9,                                    !- Thermal Absorptance
  0.85,                                   !- Solar Absorptance