
OS:Version,
  {2dd29abc-f218-43cb-b1c5-af663a4358a1}, !- Handle
  3.9.0;                                  !- Version Identifier

OS:SimulationControl,
  {ca6194d2-2012-4aca-aa29-658bdf99d96e}, !- Handle
  ,                                       !- Do Zone Sizing Calculation
  ,                                       !- Do System Sizing Calculation
  ,                                       !- Do Plant Sizing Calculation
  No;                                     !- Run Simulation for Sizing Periods

OS:Timestep,
  {6bb1da6a-f38d-4159-8267-8180373b2bca}, !- Handle
  1;                                      !- Number of Timesteps per Hour

OS:ShadowCalculation,
  {5c4394b5-c42b-475d-8fe9-167935027ecc}, !- Handle
  PolygonClipping,                        !- Shading Calculation Method
  ,                                       !- Shading Calculation Update Frequency Method
  20,                                     !- Shading Calculation Update Frequency
  200,                                    !- Maximum Figures in Shadow Overlap Calculations
  ,                                       !- Polygon Clipping Algorithm
  512,                                    !- Pixel Counting Resolution
  ,                                       !- Sky Diffuse Modeling Algorithm
  No,                                     !- Output External Shading Calculation Results
  No,                                     !- Disable Self-Shading Within Shading Zone Groups
  No;                                     !- Disable Self-Shading From Shading Zone Groups to Other Zones

OS:SurfaceConvectionAlgorithm:Outside,
  {41f5c6b1-d832-40ad-aa0b-eb8cb66075bc}, !- Handle
  DOE-2;                                  !- Algorithm

OS:SurfaceConvectionAlgorithm:Inside,
  {ca7d3d6e-e9b3-419d-9c84-554bb64b5c55}, !- Handle
  TARP;                                   !- Algorithm

OS:ZoneCapacitanceMultiplier:ResearchSpecial,
  {03377ef9-4669-4c3a-94d5-9395d7f46ad0}, !- Handle
  7,                                      !- Temperature Capacity Multiplier
  15,                                     !- Humidity Capacity Multiplier
  ;                                       !- Carbon Dioxide Capacity Multiplier

OS:ConvergenceLimits,
  {19150968-7ca1-4ae6-abaa-01754579aedc}, !- Handle
  0;                                      !- Minimum System Timestep {minutes}

OS:RunPeriod,
  {3319e2da-c144-4b9b-a93e-b976a7b634b7}, !- Handle
  Run Period 1,                           !- Name
  1,                                      !- Begin Month
  1,                                      !- Begin Day of Month
  12,                                     !- End Month
  31,                                     !- End Day of Month
  ,                                       !- Use Weather File Holidays and Special Days
  ,                                       !- Use Weather File Daylight Saving Period
  ,                                       !- Apply Weekend Holiday Rule
  ,                                       !- Use Weather File Rain Indicators
  ,                                       !- Use Weather File Snow Indicators
  ;                                       !- Number of Times Runperiod to be Repeated

OS:PerformancePrecisionTradeoffs,
  {3f72ec36-98b5-4a7b-9fce-b2c3f1d9269f}, !- Handle
  ,                                       !- Use Coil Direct Solutions
  CarrollMRT;                             !- Zone Radiant Exchange Algorithm

OS:WeatherFile,
  {2a20d308-ba23-4bd3-855e-dfb32a24239c}, !- Handle
  Buffalo Niagara Intl Ap,                !- City
  NY,                                     !- State Province Region
  USA,                                    !- Country
  TMY3,                                   !- Data Source
  725280,                                 !- WMO Number
  42.93,                                  !- Latitude {deg}
  -78.73,                                 !- Longitude {deg}
  -5,                                     !- Time Zone {hr}
  215,                                    !- Elevation {m}
  /Users/nmoore/github/urbanopt-example-geojson-project/example_project/weather/USA_NY_Buffalo-Greater.Buffalo.Intl.AP.725280_TMY3.epw, !- Url
  6B50E0FF,                               !- Checksum
  ,                                       !- Start Date Actual Year
  Sunday;                                 !- Start Day of Week

OS:YearDescription,
  {ce7bf77a-9545-4063-9413-d0c626d358b6}, !- Handle
  2007,                                   !- Calendar Year
  ,                                       !- Day of Week for Start Day
  ;                                       !- Is Leap Year

OS:Site,
  {8d313c53-b7e9-49d0-a376-3697120a295d}, !- Handle
  Buffalo Niagara Intl Ap_NY,             !- Name
  42.93,                                  !- Latitude {deg}
  -78.73,                                 !- Longitude {deg}
  -5,                                     !- Time Zone {hr}
  215,                                    !- Elevation {m}
  Suburbs,                                !- Terrain
  Yes;                                    !- Keep Site Location Information

OS:RunPeriodControl:DaylightSavingTime,
  {44606e82-c636-4037-82cd-c3f6a9fb028e}, !- Handle
  Mar 12,                                 !- Start Date
  Nov 5;                                  !- End Date

OS:Site:GroundTemperature:Shallow,
  {ee0e6f82-6a63-48ba-817f-1f3a01d625ae}, !- Handle
  4.30207395723828,                       !- January Surface Ground Temperature {C}
  2.29327249652502,                       !- February Surface Ground Temperature {C}
  2.13240047156047,                       !- March Surface Ground Temperature {C}
  3.08567940719286,                       !- April Surface Ground Temperature {C}
  6.91256312497526,                       !- May Surface Ground Temperature {C}
  10.7216195949507,                       !- June Surface Ground Temperature {C}
  14.0238679822574,                       !- July Surface Ground Temperature {C}
  16.1157611184724,                       !- August Surface Ground Temperature {C}
  16.2934789303462,                       !- September Surface Ground Temperature {C}
  14.5920754632847,                       !- October Surface Ground Temperature {C}
  11.374036348653,                        !- November Surface Ground Temperature {C}
  7.68182621661674;                       !- December Surface Ground Temperature {C}

OS:ThermalZone,
  {0603f62c-9c55-4b9f-b7c0-e482918161e2}, !- Handle
  conditioned space,                      !- Name
  1,                                      !- Multiplier
  ,                                       !- Ceiling Height {m}
  692.06373070848,                        !- Volume {m3}
  ,                                       !- Floor Area {m2}
  ,                                       !- Zone Inside Convection Algorithm
  ,                                       !- Zone Outside Convection Algorithm
  ,                                       !- Zone Conditioning Equipment List Name
  {e1b1d81f-ddab-4c1e-a26b-fef2fa3afd12}, !- Zone Air Inlet Port List
  {48f6e1b3-0f0f-4d15-9f34-64a1ecc8753c}, !- Zone Air Exhaust Port List
  {4ca27bae-9544-4844-a244-ebdb2cc95e9c}, !- Zone Air Node Name
  {695fee4d-ce0c-47bd-835e-db0ac809426c}, !- Zone Return Air Port List
  ,                                       !- Primary Daylighting Control Name
  ,                                       !- Fraction of Zone Controlled by Primary Daylighting Control
  ,                                       !- Secondary Daylighting Control Name
  ,                                       !- Fraction of Zone Controlled by Secondary Daylighting Control
  ,                                       !- Illuminance Map Name
  ,                                       !- Group Rendering Name
  {2203f56a-7b2d-46ff-b497-52234589aa3a}, !- Thermostat Name
  No;                                     !- Use Ideal Air Loads

OS:Node,
  {98589a3e-1788-438b-b04b-84d4702a4f54}, !- Handle
  Node 1,                                 !- Name
  {4ca27bae-9544-4844-a244-ebdb2cc95e9c}, !- Inlet Port
  ;                                       !- Outlet Port

OS:Connection,
  {4ca27bae-9544-4844-a244-ebdb2cc95e9c}, !- Handle
  {0603f62c-9c55-4b9f-b7c0-e482918161e2}, !- Source Object
  11,                                     !- Outlet Port
  {98589a3e-1788-438b-b04b-84d4702a4f54}, !- Target Object
  2;                                      !- Inlet Port

OS:PortList,
  {e1b1d81f-ddab-4c1e-a26b-fef2fa3afd12}, !- Handle
  {0603f62c-9c55-4b9f-b7c0-e482918161e2}, !- HVAC Component
  {28633823-d9f1-41a7-a1b4-80da1d47c343}; !- Port 1

OS:PortList,
  {48f6e1b3-0f0f-4d15-9f34-64a1ecc8753c}, !- Handle
  {0603f62c-9c55-4b9f-b7c0-e482918161e2}; !- HVAC Component

OS:PortList,
  {695fee4d-ce0c-47bd-835e-db0ac809426c}, !- Handle
  {0603f62c-9c55-4b9f-b7c0-e482918161e2}, !- HVAC Component
  {f57b9453-7d71-40fd-8825-5f12a0571187}; !- Port 1

OS:Sizing:Zone,
  {5f31d977-1a15-448f-93b7-8ae9956bf850}, !- Handle
  {0603f62c-9c55-4b9f-b7c0-e482918161e2}, !- Zone or ZoneList Name
  SupplyAirTemperature,                   !- Zone Cooling Design Supply Air Temperature Input Method
  14,                                     !- Zone Cooling Design Supply Air Temperature {C}
  11.11,                                  !- Zone Cooling Design Supply Air Temperature Difference {deltaC}
  SupplyAirTemperature,                   !- Zone Heating Design Supply Air Temperature Input Method
  40,                                     !- Zone Heating Design Supply Air Temperature {C}
  11.11,                                  !- Zone Heating Design Supply Air Temperature Difference {deltaC}
  0.0085,                                 !- Zone Cooling Design Supply Air Humidity Ratio {kg-H2O/kg-air}
  0.008,                                  !- Zone Heating Design Supply Air Humidity Ratio {kg-H2O/kg-air}
  ,                                       !- Zone Heating Sizing Factor
  ,                                       !- Zone Cooling Sizing Factor
  DesignDay,                              !- Cooling Design Air Flow Method
  ,                                       !- Cooling Design Air Flow Rate {m3/s}
  ,                                       !- Cooling Minimum Air Flow per Zone Floor Area {m3/s-m2}
  ,                                       !- Cooling Minimum Air Flow {m3/s}
  ,                                       !- Cooling Minimum Air Flow Fraction
  DesignDay,                              !- Heating Design Air Flow Method
  ,                                       !- Heating Design Air Flow Rate {m3/s}
  ,                                       !- Heating Maximum Air Flow per Zone Floor Area {m3/s-m2}
  ,                                       !- Heating Maximum Air Flow {m3/s}
  ,                                       !- Heating Maximum Air Flow Fraction
  No,                                     !- Account for Dedicated Outdoor Air System
  NeutralSupplyAir,                       !- Dedicated Outdoor Air System Control Strategy
  autosize,                               !- Dedicated Outdoor Air Low Setpoint Temperature for Design {C}
  autosize,                               !- Dedicated Outdoor Air High Setpoint Temperature for Design {C}
  Sensible Load Only No Latent Load,      !- Zone Load Sizing Method
  HumidityRatioDifference,                !- Zone Latent Cooling Design Supply Air Humidity Ratio Input Method
  ,                                       !- Zone Dehumidification Design Supply Air Humidity Ratio {kgWater/kgDryAir}
  0.005,                                  !- Zone Cooling Design Supply Air Humidity Ratio Difference {kgWater/kgDryAir}
  HumidityRatioDifference,                !- Zone Latent Heating Design Supply Air Humidity Ratio Input Method
  ,                                       !- Zone Humidification Design Supply Air Humidity Ratio {kgWater/kgDryAir}
  0.005,                                  !- Zone Humidification Design Supply Air Humidity Ratio Difference {kgWater/kgDryAir}
  ,                                       !- Zone Humidistat Dehumidification Set Point Schedule Name
  ,                                       !- Zone Humidistat Humidification Set Point Schedule Name
  ,                                       !- Design Zone Air Distribution Effectiveness in Cooling Mode
  ,                                       !- Design Zone Air Distribution Effectiveness in Heating Mode
  ,                                       !- Design Zone Secondary Recirculation Fraction {dimensionless}
  ,                                       !- Design Minimum Zone Ventilation Efficiency {dimensionless}
  Coincident;                             !- Sizing Option

OS:ZoneHVAC:EquipmentList,
  {84d90218-5062-4191-bb16-c2bcd869badf}, !- Handle
  Zone HVAC Equipment List 1,             !- Name
  {0603f62c-9c55-4b9f-b7c0-e482918161e2}, !- Thermal Zone
  ,                                       !- Load Distribution Scheme
  {4bb08ecf-c7f1-4bb6-889b-0af638870729}, !- Zone Equipment 1
  1,                                      !- Zone Equipment Cooling Sequence 1
  1,                                      !- Zone Equipment Heating or No-Load Sequence 1
  {0e19800f-0f7b-4f08-9671-3a0203986053}, !- Zone Equipment Sequential Cooling Fraction Schedule Name 1
  {8c61aea2-0f70-47c5-9c6a-9bcd8158297e}; !- Zone Equipment Sequential Heating Fraction Schedule Name 1

OS:AdditionalProperties,
  {3a43547f-667b-4abb-afda-1ba62e3eb910}, !- Handle
  {0603f62c-9c55-4b9f-b7c0-e482918161e2}, !- Object Name
  ObjectType,                             !- Feature Name 1
  String,                                 !- Feature Data Type 1
  conditioned space;                      !- Feature Value 1

OS:Space,
  {fefe8175-f59f-4970-98f4-9c4c6889008b}, !- Handle
  conditioned space 1,                    !- Name
  ,                                       !- Space Type Name
  ,                                       !- Default Construction Set Name
  ,                                       !- Default Schedule Set Name
  ,                                       !- Direction of Relative North {deg}
  ,                                       !- X Origin {m}
  ,                                       !- Y Origin {m}
  ,                                       !- Z Origin {m}
  ,                                       !- Building Story Name
  {0603f62c-9c55-4b9f-b7c0-e482918161e2}, !- Thermal Zone Name
  ,                                       !- Part of Total Floor Area
  ,                                       !- Design Specification Outdoor Air Object Name
  ,                                       !- Building Unit Name
  692.06373070848;                        !- Volume {m3}

OS:Schedule:Ruleset,
  {9c0c9a6b-9378-4404-bea5-c5c3158e2a82}, !- Handle
  heating setpoint,                       !- Name
  {16bbf815-47c5-4617-94c3-2240ba07eb85}, !- Schedule Type Limits Name
  {78e918a0-9f74-4ed9-a266-355650dacba8}; !- Default Day Schedule Name

OS:Schedule:Day,
  {78e918a0-9f74-4ed9-a266-355650dacba8}, !- Handle
  heating setpoint default day,           !- Name
  {16bbf815-47c5-4617-94c3-2240ba07eb85}, !- Schedule Type Limits Name
  ,                                       !- Interpolate to Timestep
  24,                                     !- Hour 1
  0,                                      !- Minute 1
  0;                                      !- Value Until Time 1

OS:Schedule:Rule,
  {9e21717b-cdaa-4b90-ba34-747f6c0b4263}, !- Handle
  heating setpoint allday rule,           !- Name
  {9c0c9a6b-9378-4404-bea5-c5c3158e2a82}, !- Schedule Ruleset Name
  0,                                      !- Rule Order
  {02addcac-054d-40df-934a-f3824211b2bc}, !- Day Schedule Name
  Yes,                                    !- Apply Sunday
  Yes,                                    !- Apply Monday
  Yes,                                    !- Apply Tuesday
  Yes,                                    !- Apply Wednesday
  Yes,                                    !- Apply Thursday
  Yes,                                    !- Apply Friday
  Yes,                                    !- Apply Saturday
  DateRange,                              !- Date Specification Type
  1,                                      !- Start Month
  1,                                      !- Start Day
  12,                                     !- End Month
  31;                                     !- End Day

OS:Schedule:Day,
  {02addcac-054d-40df-934a-f3824211b2bc}, !- Handle
  heating setpoint day,                   !- Name
  {16bbf815-47c5-4617-94c3-2240ba07eb85}, !- Schedule Type Limits Name
  ,                                       !- Interpolate to Timestep
  24,                                     !- Hour 1
  0,                                      !- Minute 1
  20;                                     !- Value Until Time 1

OS:Schedule:Ruleset,
  {78cd1fae-8512-454e-9431-7ba8fd4ba098}, !- Handle
  cooling setpoint,                       !- Name
  {16bbf815-47c5-4617-94c3-2240ba07eb85}, !- Schedule Type Limits Name
  {616312ab-129e-442d-9803-3470898e4e68}; !- Default Day Schedule Name

OS:Schedule:Day,
  {616312ab-129e-442d-9803-3470898e4e68}, !- Handle
  cooling setpoint default day,           !- Name
  {16bbf815-47c5-4617-94c3-2240ba07eb85}, !- Schedule Type Limits Name
  ,                                       !- Interpolate to Timestep
  24,                                     !- Hour 1
  0,                                      !- Minute 1
  0;                                      !- Value Until Time 1

OS:Schedule:Rule,
  {14bef261-18f9-441a-8446-1da14299ffd0}, !- Handle
  cooling setpoint allday rule,           !- Name
  {78cd1fae-8512-454e-9431-7ba8fd4ba098}, !- Schedule Ruleset Name
  0,                                      !- Rule Order
  {98e3933e-4a05-4e85-82ef-3b62263d0640}, !- Day Schedule Name
  Yes,                                    !- Apply Sunday
  Yes,                                    !- Apply Monday
  Yes,                                    !- Apply Tuesday
  Yes,                                    !- Apply Wednesday
  Yes,                                    !- Apply Thursday
  Yes,                                    !- Apply Friday
  Yes,                                    !- Apply Saturday
  DateRange,                              !- Date Specification Type
  1,                                      !- Start Month
  1,                                      !- Start Day
  12,                                     !- End Month
  31;                                     !- End Day

OS:Schedule:Day,
  {98e3933e-4a05-4e85-82ef-3b62263d0640}, !- Handle
  cooling setpoint day,                   !- Name
  {16bbf815-47c5-4617-94c3-2240ba07eb85}, !- Schedule Type Limits Name
  ,                                       !- Interpolate to Timestep
  24,                                     !- Hour 1
  0,                                      !- Minute 1
  25.5555555555556;                       !- Value Until Time 1

OS:ThermostatSetpoint:DualSetpoint,
  {2203f56a-7b2d-46ff-b497-52234589aa3a}, !- Handle
  conditioned space temperature setpoint, !- Name
  {9c0c9a6b-9378-4404-bea5-c5c3158e2a82}, !- Heating Setpoint Temperature Schedule Name
  {78cd1fae-8512-454e-9431-7ba8fd4ba098}, !- Cooling Setpoint Temperature Schedule Name
  0;                                      !- Temperature Difference Between Cutout And Setpoint {deltaC}

OS:ScheduleTypeLimits,
  {16bbf815-47c5-4617-94c3-2240ba07eb85}, !- Handle
  Temperature,                            !- Name
  ,                                       !- Lower Limit Value
  ,                                       !- Upper Limit Value
  Continuous,                             !- Numeric Type
  Temperature;                            !- Unit Type

OS:Surface,
  {df232c7e-9b94-44f7-9565-8f1af59e9aeb}, !- Handle
  Roof1,                                  !- Name
  RoofCeiling,                            !- Surface Type
  {1735a60c-380f-4b9a-a698-f881fde89d9c}, !- Construction Name
  {b639bcc6-968b-4c9b-b6c5-948311ec4305}, !- Space Name
  Outdoors,                               !- Outside Boundary Condition
  ,                                       !- Outside Boundary Condition Object
  SunExposed,                             !- Sun Exposure
  WindExposed,                            !- Wind Exposure
  ,                                       !- View Factor to Ground
  ,                                       !- Number of Vertices
  -26.9347048849634, 58.0557891618865, 2.4384, !- X,Y,Z Vertex 1 {m}
  -26.9347048849634, 46.7895631136661, 8.0715130241102, !- X,Y,Z Vertex 2 {m}
  -14.3386812381136, 46.7895631136661, 8.0715130241102, !- X,Y,Z Vertex 3 {m}
  -14.3386812381136, 58.0557891618865, 2.4384; !- X,Y,Z Vertex 4 {m}

OS:AdditionalProperties,
  {30ed2335-ace0-4454-a92a-1519f56d1499}, !- Handle
  {df232c7e-9b94-44f7-9565-8f1af59e9aeb}, !- Object Name
  Length,                                 !- Feature Name 1
  Double,                                 !- Feature Data Type 1
  41.325536899113608,                     !- Feature Value 1
  Width,                                  !- Feature Name 2
  Double,                                 !- Feature Data Type 2
  41.325536899113601,                     !- Feature Value 2
  Azimuth,                                !- Feature Name 3
  Integer,                                !- Feature Data Type 3
  0,                                      !- Feature Value 3
  Tilt,                                   !- Feature Name 4
  Double,                                 !- Feature Data Type 4
  0.5,                                    !- Feature Value 4
  SurfaceType,                            !- Feature Name 5
  String,                                 !- Feature Data Type 5
  Roof;                                   !- Feature Value 5

OS:ThermalZone,
  {c4a76f27-758f-45db-b269-c5bab04a57c9}, !- Handle
  attic - vented,                         !- Name
  1,                                      !- Multiplier
  ,                                       !- Ceiling Height {m}
  356.389957095237,                       !- Volume {m3}
  ,                                       !- Floor Area {m2}
  ,                                       !- Zone Inside Convection Algorithm
  ,                                       !- Zone Outside Convection Algorithm
  ,                                       !- Zone Conditioning Equipment List Name
  {291fdc18-5061-46e1-9923-d125996b8e6f}, !- Zone Air Inlet Port List
  {95d78cb2-86dc-4387-b131-ec0c880d9dbd}, !- Zone Air Exhaust Port List
  {277e703f-c4bc-4d24-aa79-d2f68a8e0770}, !- Zone Air Node Name
  {c4191f37-fa4c-47ec-974b-8c5ddebdc323}, !- Zone Return Air Port List
  ,                                       !- Primary Daylighting Control Name
  ,                                       !- Fraction of Zone Controlled by Primary Daylighting Control
  ,                                       !- Secondary Daylighting Control Name
  ,                                       !- Fraction of Zone Controlled by Secondary Daylighting Control
  ,                                       !- Illuminance Map Name
  ,                                       !- Group Rendering Name
  ,                                       !- Thermostat Name
  No;                                     !- Use Ideal Air Loads

OS:Node,
  {55ab96d8-f779-477c-8360-0d2ddef69b80}, !- Handle
  Node 2,                                 !- Name
  {277e703f-c4bc-4d24-aa79-d2f68a8e0770}, !- Inlet Port
  ;                                       !- Outlet Port

OS:Connection,
  {277e703f-c4bc-4d24-aa79-d2f68a8e0770}, !- Handle
  {c4a76f27-758f-45db-b269-c5bab04a57c9}, !- Source Object
  11,                                     !- Outlet Port
  {55ab96d8-f779-477c-8360-0d2ddef69b80}, !- Target Object
  2;                                      !- Inlet Port

OS:PortList,
  {291fdc18-5061-46e1-9923-d125996b8e6f}, !- Handle
  {c4a76f27-758f-45db-b269-c5bab04a57c9}; !- HVAC Component

OS:PortList,
  {95d78cb2-86dc-4387-b131-ec0c880d9dbd}, !- Handle
  {c4a76f27-758f-45db-b269-c5bab04a57c9}; !- HVAC Component

OS:PortList,
  {c4191f37-fa4c-47ec-974b-8c5ddebdc323}, !- Handle
  {c4a76f27-758f-45db-b269-c5bab04a57c9}; !- HVAC Component

OS:Sizing:Zone,
  {ff1b5667-797a-4be7-8583-d4e26bcfe0f5}, !- Handle
  {c4a76f27-758f-45db-b269-c5bab04a57c9}, !- Zone or ZoneList Name
  SupplyAirTemperature,                   !- Zone Cooling Design Supply Air Temperature Input Method
  14,                                     !- Zone Cooling Design Supply Air Temperature {C}
  11.11,                                  !- Zone Cooling Design Supply Air Temperature Difference {deltaC}
  SupplyAirTemperature,                   !- Zone Heating Design Supply Air Temperature Input Method
  40,                                     !- Zone Heating Design Supply Air Temperature {C}
  11.11,                                  !- Zone Heating Design Supply Air Temperature Difference {deltaC}
  0.0085,                                 !- Zone Cooling Design Supply Air Humidity Ratio {kg-H2O/kg-air}
  0.008,                                  !- Zone Heating Design Supply Air Humidity Ratio {kg-H2O/kg-air}
  ,                                       !- Zone Heating Sizing Factor
  ,                                       !- Zone Cooling Sizing Factor
  DesignDay,                              !- Cooling Design Air Flow Method
  ,                                       !- Cooling Design Air Flow Rate {m3/s}
  ,                                       !- Cooling Minimum Air Flow per Zone Floor Area {m3/s-m2}
  ,                                       !- Cooling Minimum Air Flow {m3/s}
  ,                                       !- Cooling Minimum Air Flow Fraction
  DesignDay,                              !- Heating Design Air Flow Method
  ,                                       !- Heating Design Air Flow Rate {m3/s}
  ,                                       !- Heating Maximum Air Flow per Zone Floor Area {m3/s-m2}
  ,                                       !- Heating Maximum Air Flow {m3/s}
  ,                                       !- Heating Maximum Air Flow Fraction
  No,                                     !- Account for Dedicated Outdoor Air System
  NeutralSupplyAir,                       !- Dedicated Outdoor Air System Control Strategy
  autosize,                               !- Dedicated Outdoor Air Low Setpoint Temperature for Design {C}
  autosize,                               !- Dedicated Outdoor Air High Setpoint Temperature for Design {C}
  Sensible Load Only No Latent Load,      !- Zone Load Sizing Method
  HumidityRatioDifference,                !- Zone Latent Cooling Design Supply Air Humidity Ratio Input Method
  ,                                       !- Zone Dehumidification Design Supply Air Humidity Ratio {kgWater/kgDryAir}
  0.005,                                  !- Zone Cooling Design Supply Air Humidity Ratio Difference {kgWater/kgDryAir}
  HumidityRatioDifference,                !- Zone Latent Heating Design Supply Air Humidity Ratio Input Method
  ,                                       !- Zone Humidification Design Supply Air Humidity Ratio {kgWater/kgDryAir}
  0.005,                                  !- Zone Humidification Design Supply Air Humidity Ratio Difference {kgWater/kgDryAir}
  ,                                       !- Zone Humidistat Dehumidification Set Point Schedule Name
  ,                                       !- Zone Humidistat Humidification Set Point Schedule Name
  ,                                       !- Design Zone Air Distribution Effectiveness in Cooling Mode
  ,                                       !- Design Zone Air Distribution Effectiveness in Heating Mode
  ,                                       !- Design Zone Secondary Recirculation Fraction {dimensionless}
  ,                                       !- Design Minimum Zone Ventilation Efficiency {dimensionless}
  Coincident;                             !- Sizing Option

OS:ZoneHVAC:EquipmentList,
  {bf7d84a6-4a93-4b98-af85-3f231ed47581}, !- Handle
  Zone HVAC Equipment List 2,             !- Name
  {c4a76f27-758f-45db-b269-c5bab04a57c9}; !- Thermal Zone

OS:AdditionalProperties,
  {ff0fd70d-47e9-4f8d-8524-fc68aedaead4}, !- Handle
  {c4a76f27-758f-45db-b269-c5bab04a57c9}, !- Object Name
  ObjectType,                             !- Feature Name 1
  String,                                 !- Feature Data Type 1
  attic - vented;                         !- Feature Value 1

OS:Space,
  {b639bcc6-968b-4c9b-b6c5-948311ec4305}, !- Handle
  attic - vented 1,                       !- Name
  ,                                       !- Space Type Name
  ,                                       !- Default Construction Set Name
  ,                                       !- Default Schedule Set Name
  ,                                       !- Direction of Relative North {deg}
  ,                                       !- X Origin {m}
  ,                                       !- Y Origin {m}
  ,                                       !- Z Origin {m}
  ,                                       !- Building Story Name
  {c4a76f27-758f-45db-b269-c5bab04a57c9}, !- Thermal Zone Name
  ,                                       !- Part of Total Floor Area
  ,                                       !- Design Specification Outdoor Air Object Name
  ,                                       !- Building Unit Name
  356.389957095237;                       !- Volume {m3}

OS:Material,
  {28a82132-0333-4974-a0a3-45ea95feed57}, !- Handle
  asphalt or fiberglass shingles,         !- Name
  Rough,                                  !- Roughness
  0.00635,                                !- Thickness {m}
  0.162714,                               !- Conductivity {W/m-K}
  1121.4,                                 !- Density {kg/m3}
  1465.45,                                !- Specific Heat {J/kg-K}
  0.9,                                    !- Thermal Absorptance
  0.85,                                   !- Solar Absorptance