
OS:Version,
  {e2c71760-2e5d-4600-8ba1-77715c73196b}, !- Handle
  3.9.0;                                  !- Version Identifier

OS:SimulationControl,
  {ee963ca2-a7f8-4d9b-a648-e2ca73be6c33}, !- Handle
  ,                                       !- Do Zone Sizing Calculation
  ,                                       !- Do System Sizing Calculation
  ,                                       !- Do Plant Sizing Calculation
  No;                                     !- Run Simulation for Sizing Periods

OS:Timestep,
  {93fce8dc-774f-4565-bafb-a8842f8fbe9d}, !- Handle
  1;                                      !- Number of Timesteps per Hour

OS:ShadowCalculation,
  {489b6a98-0542-45bf-b56a-f252387d41fa}, !- Handle
  PolygonClipping,                        !- Shading Calculation Method
  ,                                       !- Shading Calculation Update Frequency Method
  20,                                     !- Shading Calculation Update Frequency
  200,                                    !- Maximum Figures in Shadow Overlap Calculations
  ,                                       !- Polygon Clipping Algorithm
  512,                                    !- Pixel Counting Resolution
  ,                                       !- Sky Diffuse Modeling Algorithm
  No,                                     !- Output External Shading Calculation Results
  No,                                     !- Disable Self-Shading Within Shading Zone Groups
  No;                                     !- Disable Self-Shading From Shading Zone Groups to Other Zones

OS:SurfaceConvectionAlgorithm:Outside,
  {255f1365-2b51-46fb-8dcc-187e657e7ae4}, !- Handle
  DOE-2;                                  !- Algorithm

OS:SurfaceConvectionAlgorithm:Inside,
  {bbe91733-3268-4463-82b8-abea3b4e37bb}, !- Handle
  TARP;                                   !- Algorithm

OS:ZoneCapacitanceMultiplier:ResearchSpecial,
  {acd0d507-6778-4b3f-a1a5-7510121f9d9b}, !- Handle
  7,                                      !- Temperature Capacity Multiplier
  15,                                     !- Humidity Capacity Multiplier
  ;                                       !- Carbon Dioxide Capacity Multiplier

OS:ConvergenceLimits,
  {50c113fc-236e-4bdf-8114-b26e28471513}, !- Handle
  0;                                      !- Minimum System Timestep {minutes}

OS:RunPeriod,
  {9230cc4f-6c40-4f50-af13-e160f91cf6d0}, !- Handle
  Run Period 1,                           !- Name
  1,                                      !- Begin Month
  1,                                      !- Begin Day of Month
  12,                                     !- End Month
  31,                                     !- End Day of Month
  ,                                       !- Use Weather File Holidays and Special Days
  ,                                       !- Use Weather File Daylight Saving Period
  ,                                       !- Apply Weekend Holiday Rule
  ,                                       !- Use Weather File Rain Indicators
  ,                                       !- Use Weather File Snow Indicators
  ;                                       !- Number of Times Runperiod to be Repeated

OS:PerformancePrecisionTradeoffs,
  {5f49497a-cff2-40b5-ac24-750f85d6baab}, !- Handle
  ,                                       !- Use Coil Direct Solutions
  CarrollMRT;                             !- Zone Radiant Exchange Algorithm

OS:WeatherFile,
  {1551c79c-7ee3-438a-a4ba-4b9bdf41ad05}, !- Handle
  Buffalo Niagara Intl Ap,                !- City
  NY,                                     !- State Province Region
  USA,                                    !- Country
  TMY3,                                   !- Data Source
  725280,                                 !- WMO Number
  42.93,                                  !- Latitude {deg}
  -78.73,                                 !- Longitude {deg}
  -5,                                     !- Time Zone {hr}
  215,                                    !- Elevation {m}
  /Users/nmoore/github/urbanopt-example-geojson-project/example_project/weather/USA_NY_Buffalo-Greater.Buffalo.Intl.AP.725280_TMY3.epw, !- Url
  6B50E0FF,                               !- Checksum
  ,                                       !- Start Date Actual Year
  Sunday;                                 !- Start Day of Week

OS:YearDescription,
  {0c5c267f-882f-4b8a-bcc0-bb822a56a5cd}, !- Handle
  2007,                                   !- Calendar Year
  ,                                       !- Day of Week for Start Day
  ;                                       !- Is Leap Year

OS:Site,
  {0443df62-8962-4988-8ab2-df8e64a294f4}, !- Handle
  Buffalo Niagara Intl Ap_NY,             !- Name
  42.93,                                  !- Latitude {deg}
  -78.73,                                 !- Longitude {deg}
  -5,                                     !- Time Zone {hr}
  215,                                    !- Elevation {m}
  Suburbs,                                !- Terrain
  Yes;                                    !- Keep Site Location Information

OS:RunPeriodControl:DaylightSavingTime,
  {5c232aab-e596-4522-89e2-ef7384e432a8}, !- Handle
  Mar 12,                                 !- Start Date
  Nov 5;                                  !- End Date

OS:Site:GroundTemperature:Shallow,
  {fe35a2e5-0012-4145-89d4-c55077ba2fed}, !- Handle
  4.30207395723828,                       !- January Surface Ground Temperature {C}
  2.29327249652502,                       !- February Surface Ground Temperature {C}
  2.13240047156047,                       !- March Surface Ground Temperature {C}
  3.08567940719286,                       !- April Surface Ground Temperature {C}
  6.91256312497526,                       !- May Surface Ground Temperature {C}
  10.7216195949507,                       !- June Surface Ground Temperature {C}
  14.0238679822574,                       !- July Surface Ground Temperature {C}
  16.1157611184724,                       !- August Surface Ground Temperature {C}
  16.2934789303462,                       !- September Surface Ground Temperature {C}
  14.5920754632847,                       !- October Surface Ground Temperature {C}
  11.374036348653,                        !- November Surface Ground Temperature {C}
  7.68182621661674;                       !- December Surface Ground Temperature {C}

OS:ThermalZone,
  {1390f52f-d857-4f04-b382-13459d4edb52}, !- Handle
  conditioned space,                      !- Name
  1,                                      !- Multiplier
  ,                                       !- Ceiling Height {m}
  346.03186535424,                        !- Volume {m3}
  ,                                       !- Floor Area {m2}
  ,                                       !- Zone Inside Convection Algorithm
  ,                                       !- Zone Outside Convection Algorithm
  ,                                       !- Zone Conditioning Equipment List Name
  {08fc4867-8888-41b5-9c72-cc037564e5c3}, !- Zone Air Inlet Port List
  {4c06b657-fd3b-4e5e-80c6-ab9425d0c9b3}, !- Zone Air Exhaust Port List
  {cbac5f1e-674e-43c7-a6bf-dd86972d5f56}, !- Zone Air Node Name
  {b12eb95f-b75a-431a-9df7-07203535cdaf}, !- Zone Return Air Port List
  ,                                       !- Primary Daylighting Control Name
  ,                                       !- Fraction of Zone Controlled by Primary Daylighting Control
  ,                                       !- Secondary Daylighting Control Name
  ,                                       !- Fraction of Zone Controlled by Secondary Daylighting Control
  ,                                       !- Illuminance Map Name
  ,                                       !- Group Rendering Name
  {059f1656-d173-4585-8df7-a2df9c72ca5a}, !- Thermostat Name
  No;                                     !- Use Ideal Air Loads

OS:Node,
  {2b54d74e-4cc0-465c-8e67-24e533775ab4}, !- Handle
  Node 1,                                 !- Name
  {cbac5f1e-674e-43c7-a6bf-dd86972d5f56}, !- Inlet Port
  ;                                       !- Outlet Port

OS:Connection,
  {cbac5f1e-674e-43c7-a6bf-dd86972d5f56}, !- Handle
  {1390f52f-d857-4f04-b382-13459d4edb52}, !- Source Object
  11,                                     !- Outlet Port
  {2b54d74e-4cc0-465c-8e67-24e533775ab4}, !- Target Object
  2;                                      !- Inlet Port

OS:PortList,
  {08fc4867-8888-41b5-9c72-cc037564e5c3}, !- Handle
  {1390f52f-d857-4f04-b382-13459d4edb52}, !- HVAC Component
  {fdc004f1-687e-43c5-b3b1-cba8c2a2458e}; !- Port 1

OS:PortList,
  {4c06b657-fd3b-4e5e-80c6-ab9425d0c9b3}, !- Handle
  {1390f52f-d857-4f04-b382-13459d4edb52}; !- HVAC Component

OS:PortList,
  {b12eb95f-b75a-431a-9df7-07203535cdaf}, !- Handle
  {1390f52f-d857-4f04-b382-13459d4edb52}, !- HVAC Component
  {2a79dc3a-25c5-45a4-b9cb-f59e87a24874}; !- Port 1

OS:Sizing:Zone,
  {b036a0d8-1b99-4a6c-aabe-d24d5adb04dc}, !- Handle
  {1390f52f-d857-4f04-b382-13459d4edb52}, !- Zone or ZoneList Name
  SupplyAirTemperature,                   !- Zone Cooling Design Supply Air Temperature Input Method
  14,                                     !- Zone Cooling Design Supply Air Temperature {C}
  11.11,                                  !- Zone Cooling Design Supply Air Temperature Difference {deltaC}
  SupplyAirTemperature,                   !- Zone Heating Design Supply Air Temperature Input Method
  40,                                     !- Zone Heating Design Supply Air Temperature {C}
  11.11,                                  !- Zone Heating Design Supply Air Temperature Difference {deltaC}
  0.0085,                                 !- Zone Cooling Design Supply Air Humidity Ratio {kg-H2O/kg-air}
  0.008,                                  !- Zone Heating Design Supply Air Humidity Ratio {kg-H2O/kg-air}
  ,                                       !- Zone Heating Sizing Factor
  ,                                       !- Zone Cooling Sizing Factor
  DesignDay,                              !- Cooling Design Air Flow Method
  ,                                       !- Cooling Design Air Flow Rate {m3/s}
  ,                                       !- Cooling Minimum Air Flow per Zone Floor Area {m3/s-m2}
  ,                                       !- Cooling Minimum Air Flow {m3/s}
  ,                                       !- Cooling Minimum Air Flow Fraction
  DesignDay,                              !- Heating Design Air Flow Method
  ,                                       !- Heating Design Air Flow Rate {m3/s}
  ,                                       !- Heating Maximum Air Flow per Zone Floor Area {m3/s-m2}
  ,                                       !- Heating Maximum Air Flow {m3/s}
  ,                                       !- Heating Maximum Air Flow Fraction
  No,                                     !- Account for Dedicated Outdoor Air System
  NeutralSupplyAir,                       !- Dedicated Outdoor Air System Control Strategy
  autosize,                               !- Dedicated Outdoor Air Low Setpoint Temperature for Design {C}
  autosize,                               !- Dedicated Outdoor Air High Setpoint Temperature for Design {C}
  Sensible Load Only No Latent Load,      !- Zone Load Sizing Method
  HumidityRatioDifference,                !- Zone Latent Cooling Design Supply Air Humidity Ratio Input Method
  ,                                       !- Zone Dehumidification Design Supply Air Humidity Ratio {kgWater/kgDryAir}
  0.005,                                  !- Zone Cooling Design Supply Air Humidity Ratio Difference {kgWater/kgDryAir}
  HumidityRatioDifference,                !- Zone Latent Heating Design Supply Air Humidity Ratio Input Method
  ,                                       !- Zone Humidification Design Supply Air Humidity Ratio {kgWater/kgDryAir}
  0.005,                                  !- Zone Humidification Design Supply Air Humidity Ratio Difference {kgWater/kgDryAir}
  ,                                       !- Zone Humidistat Dehumidification Set Point Schedule Name
  ,                                       !- Zone Humidistat Humidification Set Point Schedule Name
  ,                                       !- Design Zone Air Distribution Effectiveness in Cooling Mode
  ,                                       !- Design Zone Air Distribution Effectiveness in Heating Mode
  ,                                       !- Design Zone Secondary Recirculation Fraction {dimensionless}
  ,                                       !- Design Minimum Zone Ventilation Efficiency {dimensionless}
  Coincident;                             !- Sizing Option

OS:ZoneHVAC:EquipmentList,
  {3e20d03b-fd61-4dff-a9de-bd33cec665e4}, !- Handle
  Zone HVAC Equipment List 1,             !- Name
  {1390f52f-d857-4f04-b382-13459d4edb52}, !- Thermal Zone
  ,                                       !- Load Distribution Scheme
  {2edae4b1-2a75-4c04-91d7-d923a8e4dae0}, !- Zone Equipment 1
  1,                                      !- Zone Equipment Cooling Sequence 1
  1,                                      !- Zone Equipment Heating or No-Load Sequence 1
  {5ed6ce15-41e2-44aa-98b9-740c6889967c}, !- Zone Equipment Sequential Cooling Fraction Schedule Name 1
  {dbaaebee-209d-410a-9746-6da7783eb94f}; !- Zone Equipment Sequential Heating Fraction Schedule Name 1

OS:AdditionalProperties,
  {c30bc94d-b88d-444f-ad98-64fffba1a0c6}, !- Handle
  {1390f52f-d857-4f04-b382-13459d4edb52}, !- Object Name
  ObjectType,                             !- Feature Name 1
  String,                                 !- Feature Data Type 1
  conditioned space;                      !- Feature Value 1

OS:Space,
  {861ca080-f3c3-48ab-af9b-33833d45252e}, !- Handle
  conditioned space 1,                    !- Name
  ,                                       !- Space Type Name
  ,                                       !- Default Construction Set Name
  ,                                       !- Default Schedule Set Name
  ,                                       !- Direction of Relative North {deg}
  ,                                       !- X Origin {m}
  ,                                       !- Y Origin {m}
  ,                                       !- Z Origin {m}
  ,                                       !- Building Story Name
  {1390f52f-d857-4f04-b382-13459d4edb52}, !- Thermal Zone Name
  ,                                       !- Part of Total Floor Area
  ,                                       !- Design Specification Outdoor Air Object Name
  ,                                       !- Building Unit Name
  346.03186535424;                        !- Volume {m3}

OS:Schedule:Ruleset,
  {e6183d5e-701e-40ef-81a7-aae89b79fd6c}, !- Handle
  heating setpoint,                       !- Name
  {6a594493-4af0-4117-bcce-97fe8e570a9e}, !- Schedule Type Limits Name
  {fbf4a059-a3d3-43ce-9ae4-0049fc1bf289}; !- Default Day Schedule Name

OS:Schedule:Day,
  {fbf4a059-a3d3-43ce-9ae4-0049fc1bf289}, !- Handle
  heating setpoint default day,           !- Name
  {6a594493-4af0-4117-bcce-97fe8e570a9e}, !- Schedule Type Limits Name
  ,                                       !- Interpolate to Timestep
  24,                                     !- Hour 1
  0,                                      !- Minute 1
  0;                                      !- Value Until Time 1

OS:Schedule:Rule,
  {eba98480-f8bf-40b7-8efa-c1ae96638f09}, !- Handle
  heating setpoint allday rule,           !- Name
  {e6183d5e-701e-40ef-81a7-aae89b79fd6c}, !- Schedule Ruleset Name
  0,                                      !- Rule Order
  {bbba39cf-7716-4b31-bddb-9472790bc092}, !- Day Schedule Name
  Yes,                                    !- Apply Sunday
  Yes,                                    !- Apply Monday
  Yes,                                    !- Apply Tuesday
  Yes,                                    !- Apply Wednesday
  Yes,                                    !- Apply Thursday
  Yes,                                    !- Apply Friday
  Yes,                                    !- Apply Saturday
  DateRange,                              !- Date Specification Type
  1,                                      !- Start Month
  1,                                      !- Start Day
  12,                                     !- End Month
  31;                                     !- End Day

OS:Schedule:Day,
  {bbba39cf-7716-4b31-bddb-9472790bc092}, !- Handle
  heating setpoint day,                   !- Name
  {6a594493-4af0-4117-bcce-97fe8e570a9e}, !- Schedule Type Limits Name
  ,                                       !- Interpolate to Timestep
  24,                                     !- Hour 1
  0,                                      !- Minute 1
  20;                                     !- Value Until Time 1

OS:Schedule:Ruleset,
  {5187816f-143d-4ba4-a5ad-5c6910cd8913}, !- Handle
  cooling setpoint,                       !- Name
  {6a594493-4af0-4117-bcce-97fe8e570a9e}, !- Schedule Type Limits Name
  {6fae0dfb-78a1-48db-a78d-79f9adb7aa0d}; !- Default Day Schedule Name

OS:Schedule:Day,
  {6fae0dfb-78a1-48db-a78d-79f9adb7aa0d}, !- Handle
  cooling setpoint default day,           !- Name
  {6a594493-4af0-4117-bcce-97fe8e570a9e}, !- Schedule Type Limits Name
  ,                                       !- Interpolate to Timestep
  24,                                     !- Hour 1
  0,                                      !- Minute 1
  0;                                      !- Value Until Time 1

OS:Schedule:Rule,
  {c3b39c2a-f3d1-4f0b-b43c-a88fb9e92623}, !- Handle
  cooling setpoint allday rule,           !- Name
  {5187816f-143d-4ba4-a5ad-5c6910cd8913}, !- Schedule Ruleset Name
  0,                                      !- Rule Order
  {55d5ba37-c5eb-425c-abcd-917979e0354c}, !- Day Schedule Name
  Yes,                                    !- Apply Sunday
  Yes,                                    !- Apply Monday
  Yes,                                    !- Apply Tuesday
  Yes,                                    !- Apply Wednesday
  Yes,                                    !- Apply Thursday
  Yes,                                    !- Apply Friday
  Yes,                                    !- Apply Saturday
  DateRange,                              !- Date Specification Type
  1,                                      !- Start Month
  1,                                      !- Start Day
  12,                                     !- End Month
  31;                                     !- End Day

OS:Schedule:Day,
  {55d5ba37-c5eb-425c-abcd-917979e0354c}, !- Handle
  cooling setpoint day,                   !- Name
  {6a594493-4af0-4117-bcce-97fe8e570a9e}, !- Schedule Type Limits Name
  ,                                       !- Interpolate to Timestep
  24,                                     !- Hour 1
  0,                                      !- Minute 1
  25.5555555555556;                       !- Value Until Time 1

OS:ThermostatSetpoint:DualSetpoint,
  {059f1656-d173-4585-8df7-a2df9c72ca5a}, !- Handle
  conditioned space temperature setpoint, !- Name
  {e6183d5e-701e-40ef-81a7-aae89b79fd6c}, !- Heating Setpoint Temperature Schedule Name
  {5187816f-143d-4ba4-a5ad-5c6910cd8913}, !- Cooling Setpoint Temperature Schedule Name
  0;                                      !- Temperature Difference Between Cutout And Setpoint {deltaC}

OS:ScheduleTypeLimits,
  {6a594493-4af0-4117-bcce-97fe8e570a9e}, !- Handle
  Temperature,                            !- Name
  ,                                       !- Lower Limit Value
  ,                                       !- Upper Limit Value
  Continuous,                             !- Numeric Type
  Temperature;                            !- Unit Type

OS:Surface,
  {bc85f417-d78c-43c9-8ad1-57ffdf77fd47}, !- Handle
  Roof1,                                  !- Name
  RoofCeiling,                            !- Surface Type
  {44e52188-8710-4714-bfbf-5ee0a3eb965b}, !- Construction Name
  {949515f1-5eff-47f5-9efe-5f230ab435e6}, !- Space Name
  Outdoors,                               !- Outside Boundary Condition
  ,                                       !- Outside Boundary Condition Object
  SunExposed,                             !- Sun Exposure
  WindExposed,                            !- Wind Exposure
  ,                                       !- View Factor to Ground
  ,                                       !- Number of Vertices
  -25.0448166683368, 35.3267874683368, 2.4384, !- X,Y,Z Vertex 1 {m}
  -25.0448166683368, 27.3603626312596, 6.42161241853859, !- X,Y,Z Vertex 2 {m}
  -16.1380829316632, 27.3603626312596, 6.42161241853859, !- X,Y,Z Vertex 3 {m}
  -16.1380829316632, 35.3267874683368, 2.4384; !- X,Y,Z Vertex 4 {m}

OS:AdditionalProperties,
  {55cef8e1-0272-465f-88e3-630c36b45557}, !- Handle
  {bc85f417-d78c-43c9-8ad1-57ffdf77fd47}, !- Object Name
  Length,                                 !- Feature Name 1
  Double,                                 !- Feature Data Type 1
  29.221567377538118,                     !- Feature Value 1
  Width,                                  !- Feature Name 2
  Double,                                 !- Feature Data Type 2
  29.221567377538118,                     !- Feature Value 2
  Azimuth,                                !- Feature Name 3
  Integer,                                !- Feature Data Type 3
  0,                                      !- Feature Value 3
  Tilt,                                   !- Feature Name 4
  Double,                                 !- Feature Data Type 4
  0.5,                                    !- Feature Value 4
  SurfaceType,                            !- Feature Name 5
  String,                                 !- Feature Data Type 5
  Roof;                                   !- Feature Value 5

OS:ThermalZone,
  {317b4896-c85d-4176-9831-11cc683bd8e2}, !- Handle
  attic - vented,                         !- Name
  1,                                      !- Multiplier
  ,                                       !- Ceiling Height {m}
  126.002877704413,                       !- Volume {m3}
  ,                                       !- Floor Area {m2}
  ,                                       !- Zone Inside Convection Algorithm
  ,                                       !- Zone Outside Convection Algorithm
  ,                                       !- Zone Conditioning Equipment List Name
  {f934d247-259b-47c7-afd8-3726e221ea9f}, !- Zone Air Inlet Port List
  {74f6716a-ee61-42cc-814b-051223970291}, !- Zone Air Exhaust Port List
  {501870a0-e0dc-45af-8bcc-66fbe92c5202}, !- Zone Air Node Name
  {7ccb9e76-4097-4392-ab6c-8c30a88d3dd5}, !- Zone Return Air Port List
  ,                                       !- Primary Daylighting Control Name
  ,                                       !- Fraction of Zone Controlled by Primary Daylighting Control
  ,                                       !- Secondary Daylighting Control Name
  ,                                       !- Fraction of Zone Controlled by Secondary Daylighting Control
  ,                                       !- Illuminance Map Name
  ,                                       !- Group Rendering Name
  ,                                       !- Thermostat Name
  No;                                     !- Use Ideal Air Loads

OS:Node,
  {c40e98d7-91a0-446a-87ae-57d3740fc63f}, !- Handle
  Node 2,                                 !- Name
  {501870a0-e0dc-45af-8bcc-66fbe92c5202}, !- Inlet Port
  ;                                       !- Outlet Port

OS:Connection,
  {501870a0-e0dc-45af-8bcc-66fbe92c5202}, !- Handle
  {317b4896-c85d-4176-9831-11cc683bd8e2}, !- Source Object
  11,                                     !- Outlet Port
  {c40e98d7-91a0-446a-87ae-57d3740fc63f}, !- Target Object
  2;                                      !- Inlet Port

OS:PortList,
  {f934d247-259b-47c7-afd8-3726e221ea9f}, !- Handle
  {317b4896-c85d-4176-9831-11cc683bd8e2}; !- HVAC Component

OS:PortList,
  {74f6716a-ee61-42cc-814b-051223970291}, !- Handle
  {317b4896-c85d-4176-9831-11cc683bd8e2}; !- HVAC Component

OS:PortList,
  {7ccb9e76-4097-4392-ab6c-8c30a88d3dd5}, !- Handle
  {317b4896-c85d-4176-9831-11cc683bd8e2}; !- HVAC Component

OS:Sizing:Zone,
  {189d8f9e-8e3e-4e65-8803-36b0da81fff7}, !- Handle
  {317b4896-c85d-4176-9831-11cc683bd8e2}, !- Zone or ZoneList Name
  SupplyAirTemperature,                   !- Zone Cooling Design Supply Air Temperature Input Method
  14,                                     !- Zone Cooling Design Supply Air Temperature {C}
  11.11,                                  !- Zone Cooling Design Supply Air Temperature Difference {deltaC}
  SupplyAirTemperature,                   !- Zone Heating Design Supply Air Temperature Input Method
  40,                                     !- Zone Heating Design Supply Air Temperature {C}
  11.11,                                  !- Zone Heating Design Supply Air Temperature Difference {deltaC}
  0.0085,                                 !- Zone Cooling Design Supply Air Humidity Ratio {kg-H2O/kg-air}
  0.008,                                  !- Zone Heating Design Supply Air Humidity Ratio {kg-H2O/kg-air}
  ,                                       !- Zone Heating Sizing Factor
  ,                                       !- Zone Cooling Sizing Factor
  DesignDay,                              !- Cooling Design Air Flow Method
  ,                                       !- Cooling Design Air Flow Rate {m3/s}
  ,                                       !- Cooling Minimum Air Flow per Zone Floor Area {m3/s-m2}
  ,                                       !- Cooling Minimum Air Flow {m3/s}
  ,                                       !- Cooling Minimum Air Flow Fraction
  DesignDay,                              !- Heating Design Air Flow Method
  ,                                       !- Heating Design Air Flow Rate {m3/s}
  ,                                       !- Heating Maximum Air Flow per Zone Floor Area {m3/s-m2}
  ,                                       !- Heating Maximum Air Flow {m3/s}
  ,                                       !- Heating Maximum Air Flow Fraction
  No,                                     !- Account for Dedicated Outdoor Air System
  NeutralSupplyAir,                       !- Dedicated Outdoor Air System Control Strategy
  autosize,                               !- Dedicated Outdoor Air Low Setpoint Temperature for Design {C}
  autosize,                               !- Dedicated Outdoor Air High Setpoint Temperature for Design {C}
  Sensible Load Only No Latent Load,      !- Zone Load Sizing Method
  HumidityRatioDifference,                !- Zone Latent Cooling Design Supply Air Humidity Ratio Input Method
  ,                                       !- Zone Dehumidification Design Supply Air Humidity Ratio {kgWater/kgDryAir}
  0.005,                                  !- Zone Cooling Design Supply Air Humidity Ratio Difference {kgWater/kgDryAir}
  HumidityRatioDifference,                !- Zone Latent Heating Design Supply Air Humidity Ratio Input Method
  ,                                       !- Zone Humidification Design Supply Air Humidity Ratio {kgWater/kgDryAir}
  0.005,                                  !- Zone Humidification Design Supply Air Humidity Ratio Difference {kgWater/kgDryAir}
  ,                                       !- Zone Humidistat Dehumidification Set Point Schedule Name
  ,                                       !- Zone Humidistat Humidification Set Point Schedule Name
  ,                                       !- Design Zone Air Distribution Effectiveness in Cooling Mode
  ,                                       !- Design Zone Air Distribution Effectiveness in Heating Mode
  ,                                       !- Design Zone Secondary Recirculation Fraction {dimensionless}
  ,                                       !- Design Minimum Zone Ventilation Efficiency {dimensionless}
  Coincident;                             !- Sizing Option

OS:ZoneHVAC:EquipmentList,
  {8d5f0e07-129e-4246-a8d2-b50d7ecc8caf}, !- Handle
  Zone HVAC Equipment List 2,             !- Name
  {317b4896-c85d-4176-9831-11cc683bd8e2}; !- Thermal Zone

OS:AdditionalProperties,
  {da1395f1-63db-4435-bc91-b042df4330e3}, !- Handle
  {317b4896-c85d-4176-9831-11cc683bd8e2}, !- Object Name
  ObjectType,                             !- Feature Name 1
  String,                                 !- Feature Data Type 1
  attic - vented;                         !- Feature Value 1

OS:Space,
  {949515f1-5eff-47f5-9efe-5f230ab435e6}, !- Handle
  attic - vented 1,                       !- Name
  ,                                       !- Space Type Name
  ,                                       !- Default Construction Set Name
  ,                                       !- Default Schedule Set Name
  ,                                       !- Direction of Relative North {deg}
  ,                                       !- X Origin {m}
  ,                                       !- Y Origin {m}
  ,                                       !- Z Origin {m}
  ,                                       !- Building Story Name
  {317b4896-c85d-4176-9831-11cc683bd8e2}, !- Thermal Zone Name
  ,                                       !- Part of Total Floor Area
  ,                                       !- Design Specification Outdoor Air Object Name
  ,                                       !- Building Unit Name
  126.002877704413;                       !- Volume {m3}

OS:Material,
  {e5ca32f1-38a6-4e67-b5e0-dc61252dbb6f}, !- Handle
  asphalt or fiberglass shingles,         !- Name
  Rough,                                  !- Roughness
  0.00635,                                !- Thickness {m}
  0.162714,                               !- Conductivity {W/m-K}
  1121.4,                                 !- Density {kg/m3}
  1465.45,                                !- Specific Heat {J/kg-K}
  0.9,                                    !- Thermal Absorptance
  0.85,                                   !- Solar Absorptance