
OS:Version,
  {5bb25f48-3c27-4ddd-9f0d-5068a589f107}, !- Handle
  3.10.0;                                 !- Version Identifier

OS:SimulationControl,
  {3f1f0c86-6c53-46e4-8ceb-2fc51813a102}, !- Handle
  ,                                       !- Do Zone Sizing Calculation
  ,                                       !- Do System Sizing Calculation
  ,                                       !- Do Plant Sizing Calculation
  No;                                     !- Run Simulation for Sizing Periods

OS:Timestep,
  {92dcf042-5906-4b34-9309-28d9d5e08a67}, !- Handle
  1;                                      !- Number of Timesteps per Hour

OS:ShadowCalculation,
  {c645589a-fc1f-4688-9351-63d377f4ef05}, !- Handle
  PolygonClipping,                        !- Shading Calculation Method
  ,                                       !- Shading Calculation Update Frequency Method
  20,                                     !- Shading Calculation Update Frequency
  200,                                    !- Maximum Figures in Shadow Overlap Calculations
  ,                                       !- Polygon Clipping Algorithm
  512,                                    !- Pixel Counting Resolution
  ,                                       !- Sky Diffuse Modeling Algorithm
  No,                                     !- Output External Shading Calculation Results
  No,                                     !- Disable Self-Shading Within Shading Zone Groups
  No;                                     !- Disable Self-Shading From Shading Zone Groups to Other Zones

OS:SurfaceConvectionAlgorithm:Outside,
  {cf2468ef-b072-43e2-bb25-ee16a131c47e}, !- Handle
  DOE-2;                                  !- Algorithm

OS:SurfaceConvectionAlgorithm:Inside,
  {b91271a5-cc90-4418-a48c-a13bb0b016d0}, !- Handle
  TARP;                                   !- Algorithm

OS:ZoneCapacitanceMultiplier:ResearchSpecial,
  {03e417a8-0e32-4856-9ffb-bf190de4c355}, !- Handle
  7,                                      !- Temperature Capacity Multiplier
  15,                                     !- Humidity Capacity Multiplier
  ;                                       !- Carbon Dioxide Capacity Multiplier

OS:ConvergenceLimits,
  {eaf82709-52e6-49be-8463-2569e2b2c66d}, !- Handle
  0;                                      !- Minimum System Timestep {minutes}

OS:RunPeriod,
  {f2759e53-3e6b-4232-b00a-0438750816b5}, !- Handle
  Run Period 1,                           !- Name
  1,                                      !- Begin Month
  1,                                      !- Begin Day of Month
  12,                                     !- End Month
  31,                                     !- End Day of Month
  ,                                       !- Use Weather File Holidays and Special Days
  ,                                       !- Use Weather File Daylight Saving Period
  ,                                       !- Apply Weekend Holiday Rule
  ,                                       !- Use Weather File Rain Indicators
  ,                                       !- Use Weather File Snow Indicators
  ;                                       !- Number of Times Runperiod to be Repeated

OS:PerformancePrecisionTradeoffs,
  {92daea29-697e-49d7-beab-547fef4edece}, !- Handle
  ,                                       !- Use Coil Direct Solutions
  CarrollMRT;                             !- Zone Radiant Exchange Algorithm

OS:WeatherFile,
  {f56f8cd4-e79f-4e30-a6bc-e0f3b9986842}, !- Handle
  Buffalo Niagara Intl Ap,                !- City
  NY,                                     !- State Province Region
  USA,                                    !- Country
  TMY3,                                   !- Data Source
  725280,                                 !- WMO Number
  42.93,                                  !- Latitude {deg}
  -78.73,                                 !- Longitude {deg}
  -5,                                     !- Time Zone {hr}
  215,                                    !- Elevation {m}
  /Users/nmoore/github/urbanopt-example-geojson-project/example_project/weather/USA_NY_Buffalo-Greater.Buffalo.Intl.AP.725280_TMY3.epw, !- Url
  6B50E0FF,                               !- Checksum
  ,                                       !- Start Date Actual Year
  Sunday;                                 !- Start Day of Week

OS:YearDescription,
  {6dc8fb28-3db7-4539-9fd2-a16809d185e9}, !- Handle
  2007,                                   !- Calendar Year
  ,                                       !- Day of Week for Start Day
  ;                                       !- Is Leap Year

OS:Site,
  {5e9e3ca9-e91e-415b-bab2-2919b53f7a24}, !- Handle
  Buffalo Niagara Intl Ap_NY,             !- Name
  42.93,                                  !- Latitude {deg}
  -78.73,                                 !- Longitude {deg}
  -5,                                     !- Time Zone {hr}
  215,                                    !- Elevation {m}
  Suburbs,                                !- Terrain
  Yes;                                    !- Keep Site Location Information

OS:RunPeriodControl:DaylightSavingTime,
  {237dff08-7691-40a1-9d71-71b0e2c86647}, !- Handle
  Mar 12,                                 !- Start Date
  Nov 5;                                  !- End Date

OS:Site:GroundTemperature:Shallow,
  {4375edff-be4e-4717-82ea-64269c7a79ab}, !- Handle
  4.30207395723828,                       !- January Surface Ground Temperature {C}
  2.29327249652502,                       !- February Surface Ground Temperature {C}
  2.13240047156047,                       !- March Surface Ground Temperature {C}
  3.08567940719286,                       !- April Surface Ground Temperature {C}
  6.91256312497526,                       !- May Surface Ground Temperature {C}
  10.7216195949507,                       !- June Surface Ground Temperature {C}
  14.0238679822574,                       !- July Surface Ground Temperature {C}
  16.1157611184724,                       !- August Surface Ground Temperature {C}
  16.2934789303462,                       !- September Surface Ground Temperature {C}
  14.5920754632847,                       !- October Surface Ground Temperature {C}
  11.374036348653,                        !- November Surface Ground Temperature {C}
  7.68182621661674;                       !- December Surface Ground Temperature {C}

OS:ThermalZone,
  {12c1999e-69b1-4be0-9b93-c8129b4319e6}, !- Handle
  conditioned space,                      !- Name
  1,                                      !- Multiplier
  ,                                       !- Ceiling Height {m}
  346.03186535424,                        !- Volume {m3}
  ,                                       !- Floor Area {m2}
  ,                                       !- Zone Inside Convection Algorithm
  ,                                       !- Zone Outside Convection Algorithm
  ,                                       !- Zone Conditioning Equipment List Name
  {cbde9c7e-b3dc-4167-a350-780711d70e6e}, !- Zone Air Inlet Port List
  {a0248a0c-25a9-4865-b219-ccb14e4c3430}, !- Zone Air Exhaust Port List
  {5d68973b-bd37-461c-a421-5e853b9b6834}, !- Zone Air Node Name
  {3e4e851f-5eb7-4532-9f3b-5f619e3990c8}, !- Zone Return Air Port List
  ,                                       !- Primary Daylighting Control Name
  ,                                       !- Fraction of Zone Controlled by Primary Daylighting Control
  ,                                       !- Secondary Daylighting Control Name
  ,                                       !- Fraction of Zone Controlled by Secondary Daylighting Control
  ,                                       !- Illuminance Map Name
  ,                                       !- Group Rendering Name
  {26555bc1-1dfc-4451-a2a6-9df051617eea}, !- Thermostat Name
  No;                                     !- Use Ideal Air Loads

OS:Node,
  {61d26b46-2d16-4201-bea2-324522aefba4}, !- Handle
  Node 1,                                 !- Name
  {5d68973b-bd37-461c-a421-5e853b9b6834}, !- Inlet Port
  ;                                       !- Outlet Port

OS:Connection,
  {5d68973b-bd37-461c-a421-5e853b9b6834}, !- Handle
  {12c1999e-69b1-4be0-9b93-c8129b4319e6}, !- Source Object
  11,                                     !- Outlet Port
  {61d26b46-2d16-4201-bea2-324522aefba4}, !- Target Object
  2;                                      !- Inlet Port

OS:PortList,
  {cbde9c7e-b3dc-4167-a350-780711d70e6e}, !- Handle
  {12c1999e-69b1-4be0-9b93-c8129b4319e6}, !- HVAC Component
  {14940a6f-c93a-4905-961c-91aefbccc716}; !- Port 1

OS:PortList,
  {a0248a0c-25a9-4865-b219-ccb14e4c3430}, !- Handle
  {12c1999e-69b1-4be0-9b93-c8129b4319e6}; !- HVAC Component

OS:PortList,
  {3e4e851f-5eb7-4532-9f3b-5f619e3990c8}, !- Handle
  {12c1999e-69b1-4be0-9b93-c8129b4319e6}, !- HVAC Component
  {05791da8-1dc8-4ea9-a4d9-0a0ced068654}; !- Port 1

OS:Sizing:Zone,
  {4782b5f8-08a8-4b0b-a157-a67e4e1a8b45}, !- Handle
  {12c1999e-69b1-4be0-9b93-c8129b4319e6}, !- Zone or ZoneList Name
  SupplyAirTemperature,                   !- Zone Cooling Design Supply Air Temperature Input Method
  14,                                     !- Zone Cooling Design Supply Air Temperature {C}
  11.11,                                  !- Zone Cooling Design Supply Air Temperature Difference {deltaC}
  SupplyAirTemperature,                   !- Zone Heating Design Supply Air Temperature Input Method
  40,                                     !- Zone Heating Design Supply Air Temperature {C}
  11.11,                                  !- Zone Heating Design Supply Air Temperature Difference {deltaC}
  0.0085,                                 !- Zone Cooling Design Supply Air Humidity Ratio {kg-H2O/kg-air}
  0.008,                                  !- Zone Heating Design Supply Air Humidity Ratio {kg-H2O/kg-air}
  ,                                       !- Zone Heating Sizing Factor
  ,                                       !- Zone Cooling Sizing Factor
  DesignDay,                              !- Cooling Design Air Flow Method
  ,                                       !- Cooling Design Air Flow Rate {m3/s}
  ,                                       !- Cooling Minimum Air Flow per Zone Floor Area {m3/s-m2}
  ,                                       !- Cooling Minimum Air Flow {m3/s}
  ,                                       !- Cooling Minimum Air Flow Fraction
  DesignDay,                              !- Heating Design Air Flow Method
  ,                                       !- Heating Design Air Flow Rate {m3/s}
  ,                                       !- Heating Maximum Air Flow per Zone Floor Area {m3/s-m2}
  ,                                       !- Heating Maximum Air Flow {m3/s}
  ,                                       !- Heating Maximum Air Flow Fraction
  No,                                     !- Account for Dedicated Outdoor Air System
  NeutralSupplyAir,                       !- Dedicated Outdoor Air System Control Strategy
  autosize,                               !- Dedicated Outdoor Air Low Setpoint Temperature for Design {C}
  autosize,                               !- Dedicated Outdoor Air High Setpoint Temperature for Design {C}
  Sensible Load Only No Latent Load,      !- Zone Load Sizing Method
  HumidityRatioDifference,                !- Zone Latent Cooling Design Supply Air Humidity Ratio Input Method
  ,                                       !- Zone Dehumidification Design Supply Air Humidity Ratio {kgWater/kgDryAir}
  0.005,                                  !- Zone Cooling Design Supply Air Humidity Ratio Difference {kgWater/kgDryAir}
  HumidityRatioDifference,                !- Zone Latent Heating Design Supply Air Humidity Ratio Input Method
  ,                                       !- Zone Humidification Design Supply Air Humidity Ratio {kgWater/kgDryAir}
  0.005,                                  !- Zone Humidification Design Supply Air Humidity Ratio Difference {kgWater/kgDryAir}
  ,                                       !- Zone Humidistat Dehumidification Set Point Schedule Name
  ,                                       !- Zone Humidistat Humidification Set Point Schedule Name
  ,                                       !- Design Zone Air Distribution Effectiveness in Cooling Mode
  ,                                       !- Design Zone Air Distribution Effectiveness in Heating Mode
  ,                                       !- Design Zone Secondary Recirculation Fraction {dimensionless}
  ,                                       !- Design Minimum Zone Ventilation Efficiency {dimensionless}
  Coincident;                             !- Sizing Option

OS:ZoneHVAC:EquipmentList,
  {73f8e7da-cba6-407d-accc-9b577e2a32e2}, !- Handle
  Zone HVAC Equipment List 1,             !- Name
  {12c1999e-69b1-4be0-9b93-c8129b4319e6}, !- Thermal Zone
  ,                                       !- Load Distribution Scheme
  {582d073d-e923-461b-9b33-6f49a201e367}, !- Zone Equipment 1
  1,                                      !- Zone Equipment Cooling Sequence 1
  1,                                      !- Zone Equipment Heating or No-Load Sequence 1
  {c53b3c15-3bcf-42eb-8804-e6088d27b15b}, !- Zone Equipment Sequential Cooling Fraction Schedule Name 1
  {b10d921f-432a-4fb2-a383-a8c63eb9f9aa}; !- Zone Equipment Sequential Heating Fraction Schedule Name 1

OS:AdditionalProperties,
  {3447cc60-1c96-45b3-99a0-67c5f2e4d024}, !- Handle
  {12c1999e-69b1-4be0-9b93-c8129b4319e6}, !- Object Name
  ObjectType,                             !- Feature Name 1
  String,                                 !- Feature Data Type 1
  conditioned space;                      !- Feature Value 1

OS:Space,
  {87dd10a6-74f7-445c-9687-aaee3e87d7e6}, !- Handle
  conditioned space 1,                    !- Name
  ,                                       !- Space Type Name
  ,                                       !- Default Construction Set Name
  ,                                       !- Default Schedule Set Name
  ,                                       !- Direction of Relative North {deg}
  ,                                       !- X Origin {m}
  ,                                       !- Y Origin {m}
  ,                                       !- Z Origin {m}
  ,                                       !- Building Story Name
  {12c1999e-69b1-4be0-9b93-c8129b4319e6}, !- Thermal Zone Name
  ,                                       !- Part of Total Floor Area
  ,                                       !- Design Specification Outdoor Air Object Name
  ,                                       !- Building Unit Name
  346.03186535424;                        !- Volume {m3}

OS:Schedule:Ruleset,
  {56de2b54-9046-4676-940c-3ab0b5df93da}, !- Handle
  heating setpoint,                       !- Name
  {909d47d3-a08f-45ae-8269-00eb3724842e}, !- Schedule Type Limits Name
  {7f2f5e38-1b62-46da-b4e3-09541bc02048}; !- Default Day Schedule Name

OS:Schedule:Day,
  {7f2f5e38-1b62-46da-b4e3-09541bc02048}, !- Handle
  heating setpoint default day,           !- Name
  {909d47d3-a08f-45ae-8269-00eb3724842e}, !- Schedule Type Limits Name
  ,                                       !- Interpolate to Timestep
  24,                                     !- Hour 1
  0,                                      !- Minute 1
  0;                                      !- Value Until Time 1

OS:Schedule:Rule,
  {6b5daa3f-26c2-48a6-845a-ac82077162a4}, !- Handle
  heating setpoint allday rule,           !- Name
  {56de2b54-9046-4676-940c-3ab0b5df93da}, !- Schedule Ruleset Name
  0,                                      !- Rule Order
  {6adaf128-535c-4811-9ca2-04348900d7cf}, !- Day Schedule Name
  Yes,                                    !- Apply Sunday
  Yes,                                    !- Apply Monday
  Yes,                                    !- Apply Tuesday
  Yes,                                    !- Apply Wednesday
  Yes,                                    !- Apply Thursday
  Yes,                                    !- Apply Friday
  Yes,                                    !- Apply Saturday
  DateRange,                              !- Date Specification Type
  1,                                      !- Start Month
  1,                                      !- Start Day
  12,                                     !- End Month
  31;                                     !- End Day

OS:Schedule:Day,
  {6adaf128-535c-4811-9ca2-04348900d7cf}, !- Handle
  heating setpoint day,                   !- Name
  {909d47d3-a08f-45ae-8269-00eb3724842e}, !- Schedule Type Limits Name
  ,                                       !- Interpolate to Timestep
  24,                                     !- Hour 1
  0,                                      !- Minute 1
  20;                                     !- Value Until Time 1

OS:Schedule:Ruleset,
  {28407a16-1f48-4e27-9165-ff53ff8b0421}, !- Handle
  cooling setpoint,                       !- Name
  {909d47d3-a08f-45ae-8269-00eb3724842e}, !- Schedule Type Limits Name
  {c268d2d4-9e3f-46b9-9727-9ebad6558415}; !- Default Day Schedule Name

OS:Schedule:Day,
  {c268d2d4-9e3f-46b9-9727-9ebad6558415}, !- Handle
  cooling setpoint default day,           !- Name
  {909d47d3-a08f-45ae-8269-00eb3724842e}, !- Schedule Type Limits Name
  ,                                       !- Interpolate to Timestep
  24,                                     !- Hour 1
  0,                                      !- Minute 1
  0;                                      !- Value Until Time 1

OS:Schedule:Rule,
  {a0261d52-9fd0-46b8-be06-e77e4d7065b4}, !- Handle
  cooling setpoint allday rule,           !- Name
  {28407a16-1f48-4e27-9165-ff53ff8b0421}, !- Schedule Ruleset Name
  0,                                      !- Rule Order
  {5ed65111-9ba6-4d4f-bf9f-54a7ae2cc81b}, !- Day Schedule Name
  Yes,                                    !- Apply Sunday
  Yes,                                    !- Apply Monday
  Yes,                                    !- Apply Tuesday
  Yes,                                    !- Apply Wednesday
  Yes,                                    !- Apply Thursday
  Yes,                                    !- Apply Friday
  Yes,                                    !- Apply Saturday
  DateRange,                              !- Date Specification Type
  1,                                      !- Start Month
  1,                                      !- Start Day
  12,                                     !- End Month
  31;                                     !- End Day

OS:Schedule:Day,
  {5ed65111-9ba6-4d4f-bf9f-54a7ae2cc81b}, !- Handle
  cooling setpoint day,                   !- Name
  {909d47d3-a08f-45ae-8269-00eb3724842e}, !- Schedule Type Limits Name
  ,                                       !- Interpolate to Timestep
  24,                                     !- Hour 1
  0,                                      !- Minute 1
  25.5555555555556;                       !- Value Until Time 1

OS:ThermostatSetpoint:DualSetpoint,
  {26555bc1-1dfc-4451-a2a6-9df051617eea}, !- Handle
  conditioned space temperature setpoint, !- Name
  {56de2b54-9046-4676-940c-3ab0b5df93da}, !- Heating Setpoint Temperature Schedule Name
  {28407a16-1f48-4e27-9165-ff53ff8b0421}, !- Cooling Setpoint Temperature Schedule Name
  0;                                      !- Temperature Difference Between Cutout And Setpoint {deltaC}

OS:ScheduleTypeLimits,
  {909d47d3-a08f-45ae-8269-00eb3724842e}, !- Handle
  Temperature,                            !- Name
  ,                                       !- Lower Limit Value
  ,                                       !- Upper Limit Value
  Continuous,                             !- Numeric Type
  Temperature;                            !- Unit Type

OS:Surface,
  {694f263d-05a9-46ef-882a-92a8d7c8a551}, !- Handle
  Roof1,                                  !- Name
  RoofCeiling,                            !- Surface Type
  {06555a4a-cd52-44e5-a014-ecc087227aaf}, !- Construction Name
  {c96d516e-fbf2-4ced-a7c7-358512e65769}, !- Space Name
  Outdoors,                               !- Outside Boundary Condition
  ,                                       !- Outside Boundary Condition Object
  SunExposed,                             !- Sun Exposure
  WindExposed,                            !- Wind Exposure
  ,                                       !- View Factor to Ground
  ,                                       !- Number of Vertices
  -25.0448166683368, 35.3267874683368, 2.4384, !- X,Y,Z Vertex 1 {m}
  -25.0448166683368, 27.3603626312596, 6.42161241853859, !- X,Y,Z Vertex 2 {m}
  -16.1380829316632, 27.3603626312596, 6.42161241853859, !- X,Y,Z Vertex 3 {m}
  -16.1380829316632, 35.3267874683368, 2.4384; !- X,Y,Z Vertex 4 {m}

OS:AdditionalProperties,
  {7c53fd0f-f87d-4262-b433-9c73e59f8e1c}, !- Handle
  {694f263d-05a9-46ef-882a-92a8d7c8a551}, !- Object Name
  Length,                                 !- Feature Name 1
  Double,                                 !- Feature Data Type 1
  29.221567377538118,                     !- Feature Value 1
  Width,                                  !- Feature Name 2
  Double,                                 !- Feature Data Type 2
  29.221567377538118,                     !- Feature Value 2
  Azimuth,                                !- Feature Name 3
  Integer,                                !- Feature Data Type 3
  0,                                      !- Feature Value 3
  Tilt,                                   !- Feature Name 4
  Double,                                 !- Feature Data Type 4
  0.5,                                    !- Feature Value 4
  SurfaceType,                            !- Feature Name 5
  String,                                 !- Feature Data Type 5
  Roof;                                   !- Feature Value 5

OS:ThermalZone,
  {832d497e-227c-42b8-ad90-61e02760e286}, !- Handle
  attic - vented,                         !- Name
  1,                                      !- Multiplier
  ,                                       !- Ceiling Height {m}
  126.003218814318,                       !- Volume {m3}
  ,                                       !- Floor Area {m2}
  ,                                       !- Zone Inside Convection Algorithm
  ,                                       !- Zone Outside Convection Algorithm
  ,                                       !- Zone Conditioning Equipment List Name
  {7428ba61-68b2-4f04-a053-af671f3cf70a}, !- Zone Air Inlet Port List
  {00a66773-e738-441a-ac5d-ad7b5aeafee4}, !- Zone Air Exhaust Port List
  {0289acc4-085d-479d-88af-7ab6ed232107}, !- Zone Air Node Name
  {ae247b07-cd16-425f-a4a5-5f3c31278881}, !- Zone Return Air Port List
  ,                                       !- Primary Daylighting Control Name
  ,                                       !- Fraction of Zone Controlled by Primary Daylighting Control
  ,                                       !- Secondary Daylighting Control Name
  ,                                       !- Fraction of Zone Controlled by Secondary Daylighting Control
  ,                                       !- Illuminance Map Name
  ,                                       !- Group Rendering Name
  ,                                       !- Thermostat Name
  No;                                     !- Use Ideal Air Loads

OS:Node,
  {fd973915-8a46-46a1-91dd-c2bc6f3c73c0}, !- Handle
  Node 2,                                 !- Name
  {0289acc4-085d-479d-88af-7ab6ed232107}, !- Inlet Port
  ;                                       !- Outlet Port

OS:Connection,
  {0289acc4-085d-479d-88af-7ab6ed232107}, !- Handle
  {832d497e-227c-42b8-ad90-61e02760e286}, !- Source Object
  11,                                     !- Outlet Port
  {fd973915-8a46-46a1-91dd-c2bc6f3c73c0}, !- Target Object
  2;                                      !- Inlet Port

OS:PortList,
  {7428ba61-68b2-4f04-a053-af671f3cf70a}, !- Handle
  {832d497e-227c-42b8-ad90-61e02760e286}; !- HVAC Component

OS:PortList,
  {00a66773-e738-441a-ac5d-ad7b5aeafee4}, !- Handle
  {832d497e-227c-42b8-ad90-61e02760e286}; !- HVAC Component

OS:PortList,
  {ae247b07-cd16-425f-a4a5-5f3c31278881}, !- Handle
  {832d497e-227c-42b8-ad90-61e02760e286}; !- HVAC Component

OS:Sizing:Zone,
  {144cd5c4-bee8-4939-9d4b-6a98f14d82c1}, !- Handle
  {832d497e-227c-42b8-ad90-61e02760e286}, !- Zone or ZoneList Name
  SupplyAirTemperature,                   !- Zone Cooling Design Supply Air Temperature Input Method
  14,                                     !- Zone Cooling Design Supply Air Temperature {C}
  11.11,                                  !- Zone Cooling Design Supply Air Temperature Difference {deltaC}
  SupplyAirTemperature,                   !- Zone Heating Design Supply Air Temperature Input Method
  40,                                     !- Zone Heating Design Supply Air Temperature {C}
  11.11,                                  !- Zone Heating Design Supply Air Temperature Difference {deltaC}
  0.0085,                                 !- Zone Cooling Design Supply Air Humidity Ratio {kg-H2O/kg-air}
  0.008,                                  !- Zone Heating Design Supply Air Humidity Ratio {kg-H2O/kg-air}
  ,                                       !- Zone Heating Sizing Factor
  ,                                       !- Zone Cooling Sizing Factor
  DesignDay,                              !- Cooling Design Air Flow Method
  ,                                       !- Cooling Design Air Flow Rate {m3/s}
  ,                                       !- Cooling Minimum Air Flow per Zone Floor Area {m3/s-m2}
  ,                                       !- Cooling Minimum Air Flow {m3/s}
  ,                                       !- Cooling Minimum Air Flow Fraction
  DesignDay,                              !- Heating Design Air Flow Method
  ,                                       !- Heating Design Air Flow Rate {m3/s}
  ,                                       !- Heating Maximum Air Flow per Zone Floor Area {m3/s-m2}
  ,                                       !- Heating Maximum Air Flow {m3/s}
  ,                                       !- Heating Maximum Air Flow Fraction
  No,                                     !- Account for Dedicated Outdoor Air System
  NeutralSupplyAir,                       !- Dedicated Outdoor Air System Control Strategy
  autosize,                               !- Dedicated Outdoor Air Low Setpoint Temperature for Design {C}
  autosize,                               !- Dedicated Outdoor Air High Setpoint Temperature for Design {C}
  Sensible Load Only No Latent Load,      !- Zone Load Sizing Method
  HumidityRatioDifference,                !- Zone Latent Cooling Design Supply Air Humidity Ratio Input Method
  ,                                       !- Zone Dehumidification Design Supply Air Humidity Ratio {kgWater/kgDryAir}
  0.005,                                  !- Zone Cooling Design Supply Air Humidity Ratio Difference {kgWater/kgDryAir}
  HumidityRatioDifference,                !- Zone Latent Heating Design Supply Air Humidity Ratio Input Method
  ,                                       !- Zone Humidification Design Supply Air Humidity Ratio {kgWater/kgDryAir}
  0.005,                                  !- Zone Humidification Design Supply Air Humidity Ratio Difference {kgWater/kgDryAir}
  ,                                       !- Zone Humidistat Dehumidification Set Point Schedule Name
  ,                                       !- Zone Humidistat Humidification Set Point Schedule Name
  ,                                       !- Design Zone Air Distribution Effectiveness in Cooling Mode
  ,                                       !- Design Zone Air Distribution Effectiveness in Heating Mode
  ,                                       !- Design Zone Secondary Recirculation Fraction {dimensionless}
  ,                                       !- Design Minimum Zone Ventilation Efficiency {dimensionless}
  Coincident;                             !- Sizing Option

OS:ZoneHVAC:EquipmentList,
  {7f87f561-964b-4979-a725-e655593e6cf2}, !- Handle
  Zone HVAC Equipment List 2,             !- Name
  {832d497e-227c-42b8-ad90-61e02760e286}; !- Thermal Zone

OS:AdditionalProperties,
  {7d00f375-1f11-466e-822a-e9bf765e8766}, !- Handle
  {832d497e-227c-42b8-ad90-61e02760e286}, !- Object Name
  ObjectType,                             !- Feature Name 1
  String,                                 !- Feature Data Type 1
  attic - vented;                         !- Feature Value 1

OS:Space,
  {c96d516e-fbf2-4ced-a7c7-358512e65769}, !- Handle
  attic - vented 1,                       !- Name
  ,                                       !- Space Type Name
  ,                                       !- Default Construction Set Name
  ,                                       !- Default Schedule Set Name
  ,                                       !- Direction of Relative North {deg}
  ,                                       !- X Origin {m}
  ,                                       !- Y Origin {m}
  ,                                       !- Z Origin {m}
  ,                                       !- Building Story Name
  {832d497e-227c-42b8-ad90-61e02760e286}, !- Thermal Zone Name
  ,                                       !- Part of Total Floor Area
  ,                                       !- Design Specification Outdoor Air Object Name
  ,                                       !- Building Unit Name
  126.003218814318;                       !- Volume {m3}

OS:Material,
  {c62ab6d4-567d-44ac-859a-cc33ea08ea35}, !- Handle
  asphalt or fiberglass shingles,         !- Name
  Rough,                                  !- Roughness
  0.00635,                                !- Thickness {m}
  0.162714,                               !- Conductivity {W/m-K}
  1121.4,                                 !- Density {kg/m3}
  1465.45,                                !- Specific Heat {J/kg-K}
  0.9,                                    !- Thermal Absorptance
  0.85,                                   !- Solar Absorptance