
OS:Version,
  {67094650-fc6e-4bae-b354-5d1401f5c8d0}, !- Handle
  3.10.0;                                 !- Version Identifier

OS:SimulationControl,
  {c1fb929b-b056-4abd-a522-9662e34e86cc}, !- Handle
  ,                                       !- Do Zone Sizing Calculation
  ,                                       !- Do System Sizing Calculation
  ,                                       !- Do Plant Sizing Calculation
  No;                                     !- Run Simulation for Sizing Periods

OS:Timestep,
  {cb1293e6-28f7-444b-bb83-e2ebb23ba7b2}, !- Handle
  1;                                      !- Number of Timesteps per Hour

OS:ShadowCalculation,
  {4a4e524f-7757-4a3b-b83c-9642bf4e0035}, !- Handle
  PolygonClipping,                        !- Shading Calculation Method
  ,                                       !- Shading Calculation Update Frequency Method
  20,                                     !- Shading Calculation Update Frequency
  200,                                    !- Maximum Figures in Shadow Overlap Calculations
  ,                                       !- Polygon Clipping Algorithm
  512,                                    !- Pixel Counting Resolution
  ,                                       !- Sky Diffuse Modeling Algorithm
  No,                                     !- Output External Shading Calculation Results
  No,                                     !- Disable Self-Shading Within Shading Zone Groups
  No;                                     !- Disable Self-Shading From Shading Zone Groups to Other Zones

OS:SurfaceConvectionAlgorithm:Outside,
  {db1acfc5-99fa-4605-b379-98020d8b45b7}, !- Handle
  DOE-2;                                  !- Algorithm

OS:SurfaceConvectionAlgorithm:Inside,
  {7f83edd0-ad2f-40ac-a24d-c8f04c370303}, !- Handle
  TARP;                                   !- Algorithm

OS:ZoneCapacitanceMultiplier:ResearchSpecial,
  {6a56e9f6-6ea2-4190-bea1-13e53da04a0a}, !- Handle
  7,                                      !- Temperature Capacity Multiplier
  15,                                     !- Humidity Capacity Multiplier
  ;                                       !- Carbon Dioxide Capacity Multiplier

OS:ConvergenceLimits,
  {5363ad3c-1e29-4bc7-b961-d526349a0d86}, !- Handle
  0;                                      !- Minimum System Timestep {minutes}

OS:RunPeriod,
  {7c4a74ab-d0b7-4a8a-acae-c74e819618e4}, !- Handle
  Run Period 1,                           !- Name
  1,                                      !- Begin Month
  1,                                      !- Begin Day of Month
  12,                                     !- End Month
  31,                                     !- End Day of Month
  ,                                       !- Use Weather File Holidays and Special Days
  ,                                       !- Use Weather File Daylight Saving Period
  ,                                       !- Apply Weekend Holiday Rule
  ,                                       !- Use Weather File Rain Indicators
  ,                                       !- Use Weather File Snow Indicators
  ;                                       !- Number of Times Runperiod to be Repeated

OS:PerformancePrecisionTradeoffs,
  {b8c0df53-9a5f-4b45-add2-fc982bada6a6}, !- Handle
  ,                                       !- Use Coil Direct Solutions
  CarrollMRT;                             !- Zone Radiant Exchange Algorithm

OS:WeatherFile,
  {502dfb38-1243-4ade-a244-7905a479de1a}, !- Handle
  Buffalo Niagara Intl Ap,                !- City
  NY,                                     !- State Province Region
  USA,                                    !- Country
  TMY3,                                   !- Data Source
  725280,                                 !- WMO Number
  42.93,                                  !- Latitude {deg}
  -78.73,                                 !- Longitude {deg}
  -5,                                     !- Time Zone {hr}
  215,                                    !- Elevation {m}
  /Users/nmoore/github/urbanopt-example-geojson-project/example_project/weather/USA_NY_Buffalo-Greater.Buffalo.Intl.AP.725280_TMY3.epw, !- Url
  6B50E0FF,                               !- Checksum
  ,                                       !- Start Date Actual Year
  Sunday;                                 !- Start Day of Week

OS:YearDescription,
  {a5c6b206-48ce-4a22-b63d-f82e08e88d4f}, !- Handle
  2007,                                   !- Calendar Year
  ,                                       !- Day of Week for Start Day
  ;                                       !- Is Leap Year

OS:Site,
  {9eac3923-1861-4c06-944a-6e913b1370ca}, !- Handle
  Buffalo Niagara Intl Ap_NY,             !- Name
  42.93,                                  !- Latitude {deg}
  -78.73,                                 !- Longitude {deg}
  -5,                                     !- Time Zone {hr}
  215,                                    !- Elevation {m}
  Suburbs,                                !- Terrain
  Yes;                                    !- Keep Site Location Information

OS:RunPeriodControl:DaylightSavingTime,
  {5b2ba6a7-e9ec-450c-803d-d258e9ef99c0}, !- Handle
  Mar 12,                                 !- Start Date
  Nov 5;                                  !- End Date

OS:Site:GroundTemperature:Shallow,
  {c86fff72-ebf2-467c-9a6b-f5c44c09c98b}, !- Handle
  4.30207395723828,                       !- January Surface Ground Temperature {C}
  2.29327249652502,                       !- February Surface Ground Temperature {C}
  2.13240047156047,                       !- March Surface Ground Temperature {C}
  3.08567940719286,                       !- April Surface Ground Temperature {C}
  6.91256312497526,                       !- May Surface Ground Temperature {C}
  10.7216195949507,                       !- June Surface Ground Temperature {C}
  14.0238679822574,                       !- July Surface Ground Temperature {C}
  16.1157611184724,                       !- August Surface Ground Temperature {C}
  16.2934789303462,                       !- September Surface Ground Temperature {C}
  14.5920754632847,                       !- October Surface Ground Temperature {C}
  11.374036348653,                        !- November Surface Ground Temperature {C}
  7.68182621661674;                       !- December Surface Ground Temperature {C}

OS:ThermalZone,
  {fda100ee-3d1a-41ad-a44f-2c19fe05b45c}, !- Handle
  conditioned space,                      !- Name
  1,                                      !- Multiplier
  ,                                       !- Ceiling Height {m}
  692.06373070848,                        !- Volume {m3}
  ,                                       !- Floor Area {m2}
  ,                                       !- Zone Inside Convection Algorithm
  ,                                       !- Zone Outside Convection Algorithm
  ,                                       !- Zone Conditioning Equipment List Name
  {0b094ab8-1c13-4a21-a5e9-5efa63d00d43}, !- Zone Air Inlet Port List
  {375df505-dc28-4c55-a311-99bb0dff7ab1}, !- Zone Air Exhaust Port List
  {903be805-4efd-4442-b15c-2824b7d895d7}, !- Zone Air Node Name
  {aeedf653-fb47-4b54-bd3e-ffcba6addf7f}, !- Zone Return Air Port List
  ,                                       !- Primary Daylighting Control Name
  ,                                       !- Fraction of Zone Controlled by Primary Daylighting Control
  ,                                       !- Secondary Daylighting Control Name
  ,                                       !- Fraction of Zone Controlled by Secondary Daylighting Control
  ,                                       !- Illuminance Map Name
  ,                                       !- Group Rendering Name
  {062fe579-d911-4e6b-93ae-2e5855fc60da}, !- Thermostat Name
  No;                                     !- Use Ideal Air Loads

OS:Node,
  {c4e27a9a-a815-4b98-b4da-08fefbd95991}, !- Handle
  Node 1,                                 !- Name
  {903be805-4efd-4442-b15c-2824b7d895d7}, !- Inlet Port
  ;                                       !- Outlet Port

OS:Connection,
  {903be805-4efd-4442-b15c-2824b7d895d7}, !- Handle
  {fda100ee-3d1a-41ad-a44f-2c19fe05b45c}, !- Source Object
  11,                                     !- Outlet Port
  {c4e27a9a-a815-4b98-b4da-08fefbd95991}, !- Target Object
  2;                                      !- Inlet Port

OS:PortList,
  {0b094ab8-1c13-4a21-a5e9-5efa63d00d43}, !- Handle
  {fda100ee-3d1a-41ad-a44f-2c19fe05b45c}, !- HVAC Component
  {56a95360-27c2-4de9-b1fc-c239c7166e77}; !- Port 1

OS:PortList,
  {375df505-dc28-4c55-a311-99bb0dff7ab1}, !- Handle
  {fda100ee-3d1a-41ad-a44f-2c19fe05b45c}; !- HVAC Component

OS:PortList,
  {aeedf653-fb47-4b54-bd3e-ffcba6addf7f}, !- Handle
  {fda100ee-3d1a-41ad-a44f-2c19fe05b45c}, !- HVAC Component
  {1e247a3b-3433-4ba0-9c82-284a0306c638}; !- Port 1

OS:Sizing:Zone,
  {2e883997-8207-45f3-8ede-d65368741f2d}, !- Handle
  {fda100ee-3d1a-41ad-a44f-2c19fe05b45c}, !- Zone or ZoneList Name
  SupplyAirTemperature,                   !- Zone Cooling Design Supply Air Temperature Input Method
  14,                                     !- Zone Cooling Design Supply Air Temperature {C}
  11.11,                                  !- Zone Cooling Design Supply Air Temperature Difference {deltaC}
  SupplyAirTemperature,                   !- Zone Heating Design Supply Air Temperature Input Method
  40,                                     !- Zone Heating Design Supply Air Temperature {C}
  11.11,                                  !- Zone Heating Design Supply Air Temperature Difference {deltaC}
  0.0085,                                 !- Zone Cooling Design Supply Air Humidity Ratio {kg-H2O/kg-air}
  0.008,                                  !- Zone Heating Design Supply Air Humidity Ratio {kg-H2O/kg-air}
  ,                                       !- Zone Heating Sizing Factor
  ,                                       !- Zone Cooling Sizing Factor
  DesignDay,                              !- Cooling Design Air Flow Method
  ,                                       !- Cooling Design Air Flow Rate {m3/s}
  ,                                       !- Cooling Minimum Air Flow per Zone Floor Area {m3/s-m2}
  ,                                       !- Cooling Minimum Air Flow {m3/s}
  ,                                       !- Cooling Minimum Air Flow Fraction
  DesignDay,                              !- Heating Design Air Flow Method
  ,                                       !- Heating Design Air Flow Rate {m3/s}
  ,                                       !- Heating Maximum Air Flow per Zone Floor Area {m3/s-m2}
  ,                                       !- Heating Maximum Air Flow {m3/s}
  ,                                       !- Heating Maximum Air Flow Fraction
  No,                                     !- Account for Dedicated Outdoor Air System
  NeutralSupplyAir,                       !- Dedicated Outdoor Air System Control Strategy
  autosize,                               !- Dedicated Outdoor Air Low Setpoint Temperature for Design {C}
  autosize,                               !- Dedicated Outdoor Air High Setpoint Temperature for Design {C}
  Sensible Load Only No Latent Load,      !- Zone Load Sizing Method
  HumidityRatioDifference,                !- Zone Latent Cooling Design Supply Air Humidity Ratio Input Method
  ,                                       !- Zone Dehumidification Design Supply Air Humidity Ratio {kgWater/kgDryAir}
  0.005,                                  !- Zone Cooling Design Supply Air Humidity Ratio Difference {kgWater/kgDryAir}
  HumidityRatioDifference,                !- Zone Latent Heating Design Supply Air Humidity Ratio Input Method
  ,                                       !- Zone Humidification Design Supply Air Humidity Ratio {kgWater/kgDryAir}
  0.005,                                  !- Zone Humidification Design Supply Air Humidity Ratio Difference {kgWater/kgDryAir}
  ,                                       !- Zone Humidistat Dehumidification Set Point Schedule Name
  ,                                       !- Zone Humidistat Humidification Set Point Schedule Name
  ,                                       !- Design Zone Air Distribution Effectiveness in Cooling Mode
  ,                                       !- Design Zone Air Distribution Effectiveness in Heating Mode
  ,                                       !- Design Zone Secondary Recirculation Fraction {dimensionless}
  ,                                       !- Design Minimum Zone Ventilation Efficiency {dimensionless}
  Coincident;                             !- Sizing Option

OS:ZoneHVAC:EquipmentList,
  {c8b37858-e953-43f4-bc2d-cf03fe83128a}, !- Handle
  Zone HVAC Equipment List 1,             !- Name
  {fda100ee-3d1a-41ad-a44f-2c19fe05b45c}, !- Thermal Zone
  ,                                       !- Load Distribution Scheme
  {e6a9b664-5638-4332-960d-9dbd4fdbd9c5}, !- Zone Equipment 1
  1,                                      !- Zone Equipment Cooling Sequence 1
  1,                                      !- Zone Equipment Heating or No-Load Sequence 1
  {b423f894-6c52-4d7b-ac43-d5f204a4b588}, !- Zone Equipment Sequential Cooling Fraction Schedule Name 1
  {d94b134f-67b3-4d97-822d-2ce256b3417c}; !- Zone Equipment Sequential Heating Fraction Schedule Name 1

OS:AdditionalProperties,
  {4dc2f771-b629-485f-9dd4-52a246555d8d}, !- Handle
  {fda100ee-3d1a-41ad-a44f-2c19fe05b45c}, !- Object Name
  ObjectType,                             !- Feature Name 1
  String,                                 !- Feature Data Type 1
  conditioned space;                      !- Feature Value 1

OS:Space,
  {c57109b4-5e2a-4be5-8caf-f22b3b3ec574}, !- Handle
  conditioned space 1,                    !- Name
  ,                                       !- Space Type Name
  ,                                       !- Default Construction Set Name
  ,                                       !- Default Schedule Set Name
  ,                                       !- Direction of Relative North {deg}
  ,                                       !- X Origin {m}
  ,                                       !- Y Origin {m}
  ,                                       !- Z Origin {m}
  ,                                       !- Building Story Name
  {fda100ee-3d1a-41ad-a44f-2c19fe05b45c}, !- Thermal Zone Name
  ,                                       !- Part of Total Floor Area
  ,                                       !- Design Specification Outdoor Air Object Name
  ,                                       !- Building Unit Name
  692.06373070848;                        !- Volume {m3}

OS:Schedule:Ruleset,
  {6996f984-8783-4d98-a1dc-17e526bde32a}, !- Handle
  heating setpoint,                       !- Name
  {6747e0ee-bccc-43bf-a795-27f7ccd2cab8}, !- Schedule Type Limits Name
  {07ef6f27-6d27-4aa3-9392-ee1dfb45c4d2}; !- Default Day Schedule Name

OS:Schedule:Day,
  {07ef6f27-6d27-4aa3-9392-ee1dfb45c4d2}, !- Handle
  heating setpoint default day,           !- Name
  {6747e0ee-bccc-43bf-a795-27f7ccd2cab8}, !- Schedule Type Limits Name
  ,                                       !- Interpolate to Timestep
  24,                                     !- Hour 1
  0,                                      !- Minute 1
  0;                                      !- Value Until Time 1

OS:Schedule:Rule,
  {c165289c-39b1-4090-9a9e-273c4fe31b51}, !- Handle
  heating setpoint allday rule,           !- Name
  {6996f984-8783-4d98-a1dc-17e526bde32a}, !- Schedule Ruleset Name
  0,                                      !- Rule Order
  {0d15eda3-a9bf-460d-a2e5-1c3196bd545a}, !- Day Schedule Name
  Yes,                                    !- Apply Sunday
  Yes,                                    !- Apply Monday
  Yes,                                    !- Apply Tuesday
  Yes,                                    !- Apply Wednesday
  Yes,                                    !- Apply Thursday
  Yes,                                    !- Apply Friday
  Yes,                                    !- Apply Saturday
  DateRange,                              !- Date Specification Type
  1,                                      !- Start Month
  1,                                      !- Start Day
  12,                                     !- End Month
  31;                                     !- End Day

OS:Schedule:Day,
  {0d15eda3-a9bf-460d-a2e5-1c3196bd545a}, !- Handle
  heating setpoint day,                   !- Name
  {6747e0ee-bccc-43bf-a795-27f7ccd2cab8}, !- Schedule Type Limits Name
  ,                                       !- Interpolate to Timestep
  24,                                     !- Hour 1
  0,                                      !- Minute 1
  20;                                     !- Value Until Time 1

OS:Schedule:Ruleset,
  {cdc221c3-a4f7-4141-90f7-5e161dd32fa8}, !- Handle
  cooling setpoint,                       !- Name
  {6747e0ee-bccc-43bf-a795-27f7ccd2cab8}, !- Schedule Type Limits Name
  {3776b03b-e94c-4ae1-a141-6301b28c0b09}; !- Default Day Schedule Name

OS:Schedule:Day,
  {3776b03b-e94c-4ae1-a141-6301b28c0b09}, !- Handle
  cooling setpoint default day,           !- Name
  {6747e0ee-bccc-43bf-a795-27f7ccd2cab8}, !- Schedule Type Limits Name
  ,                                       !- Interpolate to Timestep
  24,                                     !- Hour 1
  0,                                      !- Minute 1
  0;                                      !- Value Until Time 1

OS:Schedule:Rule,
  {fb95a35f-43ae-4814-9565-118bceac6ce5}, !- Handle
  cooling setpoint allday rule,           !- Name
  {cdc221c3-a4f7-4141-90f7-5e161dd32fa8}, !- Schedule Ruleset Name
  0,                                      !- Rule Order
  {fcdda3b4-84d7-49b5-b836-385a322a304a}, !- Day Schedule Name
  Yes,                                    !- Apply Sunday
  Yes,                                    !- Apply Monday
  Yes,                                    !- Apply Tuesday
  Yes,                                    !- Apply Wednesday
  Yes,                                    !- Apply Thursday
  Yes,                                    !- Apply Friday
  Yes,                                    !- Apply Saturday
  DateRange,                              !- Date Specification Type
  1,                                      !- Start Month
  1,                                      !- Start Day
  12,                                     !- End Month
  31;                                     !- End Day

OS:Schedule:Day,
  {fcdda3b4-84d7-49b5-b836-385a322a304a}, !- Handle
  cooling setpoint day,                   !- Name
  {6747e0ee-bccc-43bf-a795-27f7ccd2cab8}, !- Schedule Type Limits Name
  ,                                       !- Interpolate to Timestep
  24,                                     !- Hour 1
  0,                                      !- Minute 1
  25.5555555555556;                       !- Value Until Time 1

OS:ThermostatSetpoint:DualSetpoint,
  {062fe579-d911-4e6b-93ae-2e5855fc60da}, !- Handle
  conditioned space temperature setpoint, !- Name
  {6996f984-8783-4d98-a1dc-17e526bde32a}, !- Heating Setpoint Temperature Schedule Name
  {cdc221c3-a4f7-4141-90f7-5e161dd32fa8}, !- Cooling Setpoint Temperature Schedule Name
  0;                                      !- Temperature Difference Between Cutout And Setpoint {deltaC}

OS:ScheduleTypeLimits,
  {6747e0ee-bccc-43bf-a795-27f7ccd2cab8}, !- Handle
  Temperature,                            !- Name
  ,                                       !- Lower Limit Value
  ,                                       !- Upper Limit Value
  Continuous,                             !- Numeric Type
  Temperature;                            !- Unit Type

OS:Surface,
  {e96f82b7-a2d6-4f74-bd78-58b6f35e2ad7}, !- Handle
  Roof1,                                  !- Name
  RoofCeiling,                            !- Surface Type
  {6adb1b66-f74f-4157-9b17-453a6913292f}, !- Construction Name
  {c57109b4-5e2a-4be5-8caf-f22b3b3ec574}, !- Space Name
  Outdoors,                               !- Outside Boundary Condition
  ,                                       !- Outside Boundary Condition Object
  SunExposed,                             !- Sun Exposure
  WindExposed,                            !- Wind Exposure
  ,                                       !- View Factor to Ground
  ,                                       !- Number of Vertices
  -8.42346109387347, 8.42346109387347, 2.4384, !- X,Y,Z Vertex 1 {m}
  -8.42346109387347, -8.42346109387347, 2.4384, !- X,Y,Z Vertex 2 {m}
  8.42346109387347, -8.42346109387347, 2.4384, !- X,Y,Z Vertex 3 {m}
  8.42346109387347, 8.42346109387347, 2.4384; !- X,Y,Z Vertex 4 {m}

OS:AdditionalProperties,
  {93d5cf26-5785-4b3c-8a47-c2a0b15a72c3}, !- Handle
  {e96f82b7-a2d6-4f74-bd78-58b6f35e2ad7}, !- Object Name
  Length,                                 !- Feature Name 1
  Double,                                 !- Feature Data Type 1
  55.27205442174192,                      !- Feature Value 1
  Width,                                  !- Feature Name 2
  Double,                                 !- Feature Data Type 2
  55.272054421741913,                     !- Feature Value 2
  Azimuth,                                !- Feature Name 3
  Integer,                                !- Feature Data Type 3
  0,                                      !- Feature Value 3
  Tilt,                                   !- Feature Name 4
  Double,                                 !- Feature Data Type 4
  0,                                      !- Feature Value 4
  SurfaceType,                            !- Feature Name 5
  String,                                 !- Feature Data Type 5
  Roof;                                   !- Feature Value 5

OS:Material,
  {3af2d8d8-ed34-4d7e-b93d-a6548068547f}, !- Handle
  asphalt or fiberglass shingles,         !- Name
  Rough,                                  !- Roughness
  0.00635,                                !- Thickness {m}
  0.162714,                               !- Conductivity {W/m-K}
  1121.4,                                 !- Density {kg/m3}
  1465.45,                                !- Specific Heat {J/kg-K}
  0.9,                                    !- Thermal Absorptance
  0.85,                                   !- Solar Absorptance
  0.85;                                   !- Visible Absorptance

OS:Material,
  {f01d9109-a276-49eb-8430-c38e5f811306}, !- Handle
  roof stud and cavity,                   !- Name
  Rough,                                  !- Roughness
  0.0889,                                 !- Thickness {m}
  0.491900632004487,                      !- Conductivity {W/m-K}
  50.32683,                               !- Density {kg/m3}
  1063.80987585548,                       !- Specific Heat {J/kg-K}
  0.9,                                    !- Thermal Absorptance
  0.7,                                    !- Solar Absorptance
  0.7;                                    !- Visible Absorptance

OS:Material,
  {fdf19cdd-7e61-49a4-b27d-aef6d46008a1}, !- Handle
  gypsum board,                           !- Name
  Rough,                                  !- Roughness
  0.00254,                                !- Thickness {m}
  0.1602906,                              !- Conductivity {W/m-K}
  801,                                    !- Density {kg/m3}
  837.4,                                  !- Specific Heat {J/kg-K}
  0.9,                                    !- Thermal Absorptance
  0.6,                                    !- Solar Absorptance
  0.6;                                    !- Visible Absorptance

OS:Construction,
  {6adb1b66-f74f-4157-9b17-453a6913292f}, !- Handle
  Roof1 construction,                     !- Name
  ,                                       !- Surface Rendering Name
  {3af2d8d8-ed34-4d7e-b93d-a6548068547f}, !- Layer 1
  {f01d9109-a276-49eb-8430-c38e5f811306}, !- Layer 2
  {fdf19cdd-7e61-49a4-b27d-aef6d46008a1}; !- Layer 3

OS:Surface,
  {6aea0ac1-0cb5-4132-b972-4c6da89b0cfa}, !- Handle
  Wall1,                                  !- Name
  Wall,                                   !- Surface Type
  {93650369-cf51-4596-9cfd-35cc88392b5d}, !- Construction Name
  {c57109b4-5e2a-4be5-8caf-f22b3b3ec574}, !- Space Name
  Outdoors,                               !- Outside Boundary Condition
  ,                                       !- Outside Boundary Condition Object
  SunExposed,                             !- Sun Exposure
  WindExposed,                            !- Wind Exposure
  ,                                       !- View Factor to Ground
  ,                                       !- Number of Vertices
  -50.3693117384615, 51.2983421384615, 0, !- X,Y,Z Vertex 1 {m}
  -50.3693117384615, 51.2983421384615, 2.4384, !- X,Y,Z Vertex 2 {m}
  -30.8354417384615, 51.2983421384615, 2.4384, !- X,Y,Z Vertex 3 {m}
  -30.8354417384615, 51.2983421384615, 0; !- X,Y,Z Vertex 4 {m}

OS:AdditionalProperties,
  {eb779fb8-54a0-4d79-8f3b-ca79c77ce7f5}, !- Handle
  {6aea0ac1-0cb5-4132-b972-4c6da89b0cfa}, !- Object Name
  Length,                                 !- Feature Name 1
  Double,                                 !- Feature Data Type 1
  64.087499999999991,                     !- Feature Value 1
  Azimuth,                                !- Feature Name 2
  Integer,                                !- Feature Data Type 2
  0,                                      !- Feature Value 2
  Tilt,                                   !- Feature Name 3
  Double,                                 !- Feature Data Type 3
  90,                                     !- Feature Value 3
  SurfaceType,                            !- Feature Name 4
  String,                                 !- Feature Data Type 4
  Wall;                                   !- Feature Value 4

OS:Material,
  {b34d381b-b61b-4b39-823e-8d73ece512f2}, !- Handle
  wood siding,                            !- Name
  Rough,                                  !- Roughness
  0.0254,                                 !- Thickness {m}
  0.1024175,                              !- Conductivity {W/m-K}
  544.68,                                 !- Density {kg/m3}
  1172.36,                                !- Specific Heat {J/kg-K}
  0.9,                                    !- Thermal Absorptance
  0.7,                                    !- Solar Absorptance
  0.7;                                    !- Visible Absorptance

OS:Material,
  {f74dd28a-47b0-444c-aae1-6ff7480460cb}, !- Handle
  osb sheathing 0.5 in.,                  !- Name
  Rough,                                  !- Roughness
  0.0127,                                 !- Thickness {m}
  0.1154577,                              !- Conductivity {W/m-K}
  512.64,                                 !- Density {kg/m3}
  1214.23,                                !- Specific Heat {J/kg-K}
  0.9,                                    !- Thermal Absorptance
  0.7,                                    !- Solar Absorptance
  0.7;                                    !- Visible Absorptance

OS:Material,
  {83500858-21f1-48b3-acc1-09816f691b49}, !- Handle
  wall stud and cavity,                   !- Name
  Rough,                                  !- Roughness
  0.1397,                                 !- Thickness {m}
  0.0929021674204099,                     !- Conductivity {W/m-K}
  139.0536,                               !- Density {kg/m3}
  1170.23755760369,                       !- Specific Heat {J/kg-K}
  0.9,                                    !- Thermal Absorptance
  0.7,                                    !- Solar Absorptance
  0.7;                                    !- Visible Absorptance

OS:Material,
  {d8b228d6-f186-44cb-bb9d-b5bab81f1ea9}, !- Handle
  gypsum board 1,                         !- Name
  Rough,                                  !- Roughness
  0.0127,                                 !- Thickness {m}
  0.1602906,                              !- Conductivity {W/m-K}
  801,                                    !- Density {kg/m3}
  837.4,                                  !- Specific Heat {J/kg-K}
  0.9,                                    !- Thermal Absorptance
  0.6,                                    !- Solar Absorptance
  0.6;                                    !- Visible Absorptance

OS:Construction,
  {93650369-cf51-4596-9cfd-35cc88392b5d}, !- Handle
  Wall1 construction,                     !- Name
  ,                                       !- Surface Rendering Name
  {b34d381b-b61b-4b39-823e-8d73ece512f2}, !- Layer 1
  {f74dd28a-47b0-444c-aae1-6ff7480460cb}, !- Layer 2
  {83500858-21f1-48b3-acc1-09816f691b49}, !- Layer 3
  {d8b228d6-f186-44cb-bb9d-b5bab81f1ea9}; !- Layer 4

OS:Surface,
  {b71c86a1-9aee-44bf-bd88-1f3b5f3dc03b}, !- Handle
  Wall2,                                  !- Name
  Wall,                                   !- Surface Type
  {2f272b17-7914-407c-b32b-734e5483fb4d}, !- Construction Name
  {c57109b4-5e2a-4be5-8caf-f22b3b3ec574}, !- Space Name
  Outdoors,                               !- Outside Boundary Condition
  ,                                       !- Outside Boundary Condition Object
  SunExposed,                             !- Sun Exposure
  WindExposed,                            !- Wind Exposure
  ,                                       !- View Factor to Ground
  ,                                       !- Number of Vertices
  51.2983421384615, -36.2004102, 0,       !- X,Y,Z Vertex 1 {m}
  51.2983421384615, -36.2004102, 2.4384,  !- X,Y,Z Vertex 2 {m}
  51.2983421384615, -45.9692502, 2.4384,  !- X,Y,Z Vertex 3 {m}
  51.2983421384615, -45.9692502, 0;       !- X,Y,Z Vertex 4 {m}

OS:AdditionalProperties,
  {affeff2b-b33a-4ee5-bd15-52b99aef165f}, !- Handle
  {b71c86a1-9aee-44bf-bd88-1f3b5f3dc03b}, !- Object Name
  Length,                                 !- Feature Name 1
  Double,                                 !- Feature Data Type 1
  32.049999999999997,                     !- Feature Value 1
  Azimuth,                                !- Feature Name 2