
OS:Version,
  {f1a5cdf5-9cd6-4e7f-8ad1-2fe67758aa6c}, !- Handle
  3.9.0;                                  !- Version Identifier

OS:SimulationControl,
  {abdab427-a131-4b95-808d-77d55427b4f4}, !- Handle
  ,                                       !- Do Zone Sizing Calculation
  ,                                       !- Do System Sizing Calculation
  ,                                       !- Do Plant Sizing Calculation
  No;                                     !- Run Simulation for Sizing Periods

OS:Timestep,
  {2936de7e-0534-425a-832c-d4f24410ff8e}, !- Handle
  1;                                      !- Number of Timesteps per Hour

OS:ShadowCalculation,
  {ec03364c-4e22-4d38-b75c-0b15e7fb0f16}, !- Handle
  PolygonClipping,                        !- Shading Calculation Method
  ,                                       !- Shading Calculation Update Frequency Method
  20,                                     !- Shading Calculation Update Frequency
  200,                                    !- Maximum Figures in Shadow Overlap Calculations
  ,                                       !- Polygon Clipping Algorithm
  512,                                    !- Pixel Counting Resolution
  ,                                       !- Sky Diffuse Modeling Algorithm
  No,                                     !- Output External Shading Calculation Results
  No,                                     !- Disable Self-Shading Within Shading Zone Groups
  No;                                     !- Disable Self-Shading From Shading Zone Groups to Other Zones

OS:SurfaceConvectionAlgorithm:Outside,
  {d59bba40-820d-481e-b22a-ef78b096339e}, !- Handle
  DOE-2;                                  !- Algorithm

OS:SurfaceConvectionAlgorithm:Inside,
  {14b3e1e0-4e0f-4a25-b2a0-1ad1f5b16dea}, !- Handle
  TARP;                                   !- Algorithm

OS:ZoneCapacitanceMultiplier:ResearchSpecial,
  {578fc274-e0d9-40a2-a431-dd3d34ea57cf}, !- Handle
  7,                                      !- Temperature Capacity Multiplier
  15,                                     !- Humidity Capacity Multiplier
  ;                                       !- Carbon Dioxide Capacity Multiplier

OS:ConvergenceLimits,
  {3797e455-6e04-42e9-86f5-092c4e05fd51}, !- Handle
  0;                                      !- Minimum System Timestep {minutes}

OS:RunPeriod,
  {a96ca97b-7ed7-4bf0-a9a4-482d1957791a}, !- Handle
  Run Period 1,                           !- Name
  1,                                      !- Begin Month
  1,                                      !- Begin Day of Month
  12,                                     !- End Month
  31,                                     !- End Day of Month
  ,                                       !- Use Weather File Holidays and Special Days
  ,                                       !- Use Weather File Daylight Saving Period
  ,                                       !- Apply Weekend Holiday Rule
  ,                                       !- Use Weather File Rain Indicators
  ,                                       !- Use Weather File Snow Indicators
  ;                                       !- Number of Times Runperiod to be Repeated

OS:PerformancePrecisionTradeoffs,
  {dcad827c-1888-47c0-8234-058706fbe1f0}, !- Handle
  ,                                       !- Use Coil Direct Solutions
  CarrollMRT;                             !- Zone Radiant Exchange Algorithm

OS:WeatherFile,
  {c2c8ded2-58ea-4562-b624-a72f78f1f976}, !- Handle
  Buffalo Niagara Intl Ap,                !- City
  NY,                                     !- State Province Region
  USA,                                    !- Country
  TMY3,                                   !- Data Source
  725280,                                 !- WMO Number
  42.93,                                  !- Latitude {deg}
  -78.73,                                 !- Longitude {deg}
  -5,                                     !- Time Zone {hr}
  215,                                    !- Elevation {m}
  /Users/nmoore/github/urbanopt-example-geojson-project/example_project/weather/USA_NY_Buffalo-Greater.Buffalo.Intl.AP.725280_TMY3.epw, !- Url
  6B50E0FF,                               !- Checksum
  ,                                       !- Start Date Actual Year
  Sunday;                                 !- Start Day of Week

OS:YearDescription,
  {a0b948c8-6166-448f-b682-4ac8c63aef9e}, !- Handle
  2007,                                   !- Calendar Year
  ,                                       !- Day of Week for Start Day
  ;                                       !- Is Leap Year

OS:Site,
  {7be4b8f5-f262-4f13-902b-65ea6404c2b1}, !- Handle
  Buffalo Niagara Intl Ap_NY,             !- Name
  42.93,                                  !- Latitude {deg}
  -78.73,                                 !- Longitude {deg}
  -5,                                     !- Time Zone {hr}
  215,                                    !- Elevation {m}
  Suburbs,                                !- Terrain
  Yes;                                    !- Keep Site Location Information

OS:RunPeriodControl:DaylightSavingTime,
  {c786d2bf-ea65-4298-beab-ff92f0f316c1}, !- Handle
  Mar 12,                                 !- Start Date
  Nov 5;                                  !- End Date

OS:Site:GroundTemperature:Shallow,
  {45a24b42-801c-4fc5-8d46-edbd7fcc5e11}, !- Handle
  4.30207395723828,                       !- January Surface Ground Temperature {C}
  2.29327249652502,                       !- February Surface Ground Temperature {C}
  2.13240047156047,                       !- March Surface Ground Temperature {C}
  3.08567940719286,                       !- April Surface Ground Temperature {C}
  6.91256312497526,                       !- May Surface Ground Temperature {C}
  10.7216195949507,                       !- June Surface Ground Temperature {C}
  14.0238679822574,                       !- July Surface Ground Temperature {C}
  16.1157611184724,                       !- August Surface Ground Temperature {C}
  16.2934789303462,                       !- September Surface Ground Temperature {C}
  14.5920754632847,                       !- October Surface Ground Temperature {C}
  11.374036348653,                        !- November Surface Ground Temperature {C}
  7.68182621661674;                       !- December Surface Ground Temperature {C}

OS:ThermalZone,
  {4ef4f99b-6568-450f-b315-943b06fe633e}, !- Handle
  conditioned space,                      !- Name
  1,                                      !- Multiplier
  ,                                       !- Ceiling Height {m}
  692.06373070848,                        !- Volume {m3}
  ,                                       !- Floor Area {m2}
  ,                                       !- Zone Inside Convection Algorithm
  ,                                       !- Zone Outside Convection Algorithm
  ,                                       !- Zone Conditioning Equipment List Name
  {1bee4546-614d-4c37-8ec6-e089a2d565e3}, !- Zone Air Inlet Port List
  {eedaa98e-c47d-4440-b966-aa109bfaa084}, !- Zone Air Exhaust Port List
  {534a21f8-7f76-45f0-92c1-189f52b73b89}, !- Zone Air Node Name
  {65d78ae8-6910-4fd1-bea0-717ad28bfd7a}, !- Zone Return Air Port List
  ,                                       !- Primary Daylighting Control Name
  ,                                       !- Fraction of Zone Controlled by Primary Daylighting Control
  ,                                       !- Secondary Daylighting Control Name
  ,                                       !- Fraction of Zone Controlled by Secondary Daylighting Control
  ,                                       !- Illuminance Map Name
  ,                                       !- Group Rendering Name
  {84773eda-3b83-402a-9971-6906cb3543b1}, !- Thermostat Name
  No;                                     !- Use Ideal Air Loads

OS:Node,
  {909b4b9d-b73e-4234-bbb4-3b0a9dedf28e}, !- Handle
  Node 1,                                 !- Name
  {534a21f8-7f76-45f0-92c1-189f52b73b89}, !- Inlet Port
  ;                                       !- Outlet Port

OS:Connection,
  {534a21f8-7f76-45f0-92c1-189f52b73b89}, !- Handle
  {4ef4f99b-6568-450f-b315-943b06fe633e}, !- Source Object
  11,                                     !- Outlet Port
  {909b4b9d-b73e-4234-bbb4-3b0a9dedf28e}, !- Target Object
  2;                                      !- Inlet Port

OS:PortList,
  {1bee4546-614d-4c37-8ec6-e089a2d565e3}, !- Handle
  {4ef4f99b-6568-450f-b315-943b06fe633e}, !- HVAC Component
  {909a82b1-7582-42f0-a93a-3d63b534f656}; !- Port 1

OS:PortList,
  {eedaa98e-c47d-4440-b966-aa109bfaa084}, !- Handle
  {4ef4f99b-6568-450f-b315-943b06fe633e}; !- HVAC Component

OS:PortList,
  {65d78ae8-6910-4fd1-bea0-717ad28bfd7a}, !- Handle
  {4ef4f99b-6568-450f-b315-943b06fe633e}, !- HVAC Component
  {eac36b3e-6718-4cc8-a7ea-e4a036f0013b}; !- Port 1

OS:Sizing:Zone,
  {04920dbf-ab0c-47df-b939-ece93ac728ff}, !- Handle
  {4ef4f99b-6568-450f-b315-943b06fe633e}, !- Zone or ZoneList Name
  SupplyAirTemperature,                   !- Zone Cooling Design Supply Air Temperature Input Method
  14,                                     !- Zone Cooling Design Supply Air Temperature {C}
  11.11,                                  !- Zone Cooling Design Supply Air Temperature Difference {deltaC}
  SupplyAirTemperature,                   !- Zone Heating Design Supply Air Temperature Input Method
  40,                                     !- Zone Heating Design Supply Air Temperature {C}
  11.11,                                  !- Zone Heating Design Supply Air Temperature Difference {deltaC}
  0.0085,                                 !- Zone Cooling Design Supply Air Humidity Ratio {kg-H2O/kg-air}
  0.008,                                  !- Zone Heating Design Supply Air Humidity Ratio {kg-H2O/kg-air}
  ,                                       !- Zone Heating Sizing Factor
  ,                                       !- Zone Cooling Sizing Factor
  DesignDay,                              !- Cooling Design Air Flow Method
  ,                                       !- Cooling Design Air Flow Rate {m3/s}
  ,                                       !- Cooling Minimum Air Flow per Zone Floor Area {m3/s-m2}
  ,                                       !- Cooling Minimum Air Flow {m3/s}
  ,                                       !- Cooling Minimum Air Flow Fraction
  DesignDay,                              !- Heating Design Air Flow Method
  ,                                       !- Heating Design Air Flow Rate {m3/s}
  ,                                       !- Heating Maximum Air Flow per Zone Floor Area {m3/s-m2}
  ,                                       !- Heating Maximum Air Flow {m3/s}
  ,                                       !- Heating Maximum Air Flow Fraction
  No,                                     !- Account for Dedicated Outdoor Air System
  NeutralSupplyAir,                       !- Dedicated Outdoor Air System Control Strategy
  autosize,                               !- Dedicated Outdoor Air Low Setpoint Temperature for Design {C}
  autosize,                               !- Dedicated Outdoor Air High Setpoint Temperature for Design {C}
  Sensible Load Only No Latent Load,      !- Zone Load Sizing Method
  HumidityRatioDifference,                !- Zone Latent Cooling Design Supply Air Humidity Ratio Input Method
  ,                                       !- Zone Dehumidification Design Supply Air Humidity Ratio {kgWater/kgDryAir}
  0.005,                                  !- Zone Cooling Design Supply Air Humidity Ratio Difference {kgWater/kgDryAir}
  HumidityRatioDifference,                !- Zone Latent Heating Design Supply Air Humidity Ratio Input Method
  ,                                       !- Zone Humidification Design Supply Air Humidity Ratio {kgWater/kgDryAir}
  0.005,                                  !- Zone Humidification Design Supply Air Humidity Ratio Difference {kgWater/kgDryAir}
  ,                                       !- Zone Humidistat Dehumidification Set Point Schedule Name
  ,                                       !- Zone Humidistat Humidification Set Point Schedule Name
  ,                                       !- Design Zone Air Distribution Effectiveness in Cooling Mode
  ,                                       !- Design Zone Air Distribution Effectiveness in Heating Mode
  ,                                       !- Design Zone Secondary Recirculation Fraction {dimensionless}
  ,                                       !- Design Minimum Zone Ventilation Efficiency {dimensionless}
  Coincident;                             !- Sizing Option

OS:ZoneHVAC:EquipmentList,
  {65107ac1-2830-4579-ac02-338d696e6147}, !- Handle
  Zone HVAC Equipment List 1,             !- Name
  {4ef4f99b-6568-450f-b315-943b06fe633e}, !- Thermal Zone
  ,                                       !- Load Distribution Scheme
  {05f2374c-1a1a-45de-a292-125b6e5cffa7}, !- Zone Equipment 1
  1,                                      !- Zone Equipment Cooling Sequence 1
  1,                                      !- Zone Equipment Heating or No-Load Sequence 1
  {0e864521-bae9-4a02-8faa-add008a1c1ef}, !- Zone Equipment Sequential Cooling Fraction Schedule Name 1
  {6ab06f36-4ff9-4fcb-b2b6-44fdf294abd2}; !- Zone Equipment Sequential Heating Fraction Schedule Name 1

OS:AdditionalProperties,
  {f71df23d-abfc-4c81-9bad-63d7159282a5}, !- Handle
  {4ef4f99b-6568-450f-b315-943b06fe633e}, !- Object Name
  ObjectType,                             !- Feature Name 1
  String,                                 !- Feature Data Type 1
  conditioned space;                      !- Feature Value 1

OS:Space,
  {30db35b8-a1c1-4312-b617-ca831ced97e2}, !- Handle
  conditioned space 1,                    !- Name
  ,                                       !- Space Type Name
  ,                                       !- Default Construction Set Name
  ,                                       !- Default Schedule Set Name
  ,                                       !- Direction of Relative North {deg}
  ,                                       !- X Origin {m}
  ,                                       !- Y Origin {m}
  ,                                       !- Z Origin {m}
  ,                                       !- Building Story Name
  {4ef4f99b-6568-450f-b315-943b06fe633e}, !- Thermal Zone Name
  ,                                       !- Part of Total Floor Area
  ,                                       !- Design Specification Outdoor Air Object Name
  ,                                       !- Building Unit Name
  692.06373070848;                        !- Volume {m3}

OS:Schedule:Ruleset,
  {62757ffd-bc30-419a-87f0-f03ae6f978e0}, !- Handle
  heating setpoint,                       !- Name
  {097762dd-bd10-45cc-9442-04fe80b48bfc}, !- Schedule Type Limits Name
  {94677657-cb79-4a76-b2a6-525f84c4b29e}; !- Default Day Schedule Name

OS:Schedule:Day,
  {94677657-cb79-4a76-b2a6-525f84c4b29e}, !- Handle
  heating setpoint default day,           !- Name
  {097762dd-bd10-45cc-9442-04fe80b48bfc}, !- Schedule Type Limits Name
  ,                                       !- Interpolate to Timestep
  24,                                     !- Hour 1
  0,                                      !- Minute 1
  0;                                      !- Value Until Time 1

OS:Schedule:Rule,
  {9b1d87bd-6bbe-413d-92a2-bda3b61dbf25}, !- Handle
  heating setpoint allday rule,           !- Name
  {62757ffd-bc30-419a-87f0-f03ae6f978e0}, !- Schedule Ruleset Name
  0,                                      !- Rule Order
  {4b5489e1-1620-419b-9e49-e198d10eddf7}, !- Day Schedule Name
  Yes,                                    !- Apply Sunday
  Yes,                                    !- Apply Monday
  Yes,                                    !- Apply Tuesday
  Yes,                                    !- Apply Wednesday
  Yes,                                    !- Apply Thursday
  Yes,                                    !- Apply Friday
  Yes,                                    !- Apply Saturday
  DateRange,                              !- Date Specification Type
  1,                                      !- Start Month
  1,                                      !- Start Day
  12,                                     !- End Month
  31;                                     !- End Day

OS:Schedule:Day,
  {4b5489e1-1620-419b-9e49-e198d10eddf7}, !- Handle
  heating setpoint day,                   !- Name
  {097762dd-bd10-45cc-9442-04fe80b48bfc}, !- Schedule Type Limits Name
  ,                                       !- Interpolate to Timestep
  24,                                     !- Hour 1
  0,                                      !- Minute 1
  20;                                     !- Value Until Time 1

OS:Schedule:Ruleset,
  {f5533eea-1a13-4da7-a5da-5ea4f40fd30a}, !- Handle
  cooling setpoint,                       !- Name
  {097762dd-bd10-45cc-9442-04fe80b48bfc}, !- Schedule Type Limits Name
  {ca04f8cd-6cc1-4714-8480-c18b75d398d5}; !- Default Day Schedule Name

OS:Schedule:Day,
  {ca04f8cd-6cc1-4714-8480-c18b75d398d5}, !- Handle
  cooling setpoint default day,           !- Name
  {097762dd-bd10-45cc-9442-04fe80b48bfc}, !- Schedule Type Limits Name
  ,                                       !- Interpolate to Timestep
  24,                                     !- Hour 1
  0,                                      !- Minute 1
  0;                                      !- Value Until Time 1

OS:Schedule:Rule,
  {84c9a84b-0a1d-46d5-b8c7-4fd36c6c1d9c}, !- Handle
  cooling setpoint allday rule,           !- Name
  {f5533eea-1a13-4da7-a5da-5ea4f40fd30a}, !- Schedule Ruleset Name
  0,                                      !- Rule Order
  {27969f02-8c08-42b7-8b0e-371c2b8a5aa8}, !- Day Schedule Name
  Yes,                                    !- Apply Sunday
  Yes,                                    !- Apply Monday
  Yes,                                    !- Apply Tuesday
  Yes,                                    !- Apply Wednesday
  Yes,                                    !- Apply Thursday
  Yes,                                    !- Apply Friday
  Yes,                                    !- Apply Saturday
  DateRange,                              !- Date Specification Type
  1,                                      !- Start Month
  1,                                      !- Start Day
  12,                                     !- End Month
  31;                                     !- End Day

OS:Schedule:Day,
  {27969f02-8c08-42b7-8b0e-371c2b8a5aa8}, !- Handle
  cooling setpoint day,                   !- Name
  {097762dd-bd10-45cc-9442-04fe80b48bfc}, !- Schedule Type Limits Name
  ,                                       !- Interpolate to Timestep
  24,                                     !- Hour 1
  0,                                      !- Minute 1
  25.5555555555556;                       !- Value Until Time 1

OS:ThermostatSetpoint:DualSetpoint,
  {84773eda-3b83-402a-9971-6906cb3543b1}, !- Handle
  conditioned space temperature setpoint, !- Name
  {62757ffd-bc30-419a-87f0-f03ae6f978e0}, !- Heating Setpoint Temperature Schedule Name
  {f5533eea-1a13-4da7-a5da-5ea4f40fd30a}, !- Cooling Setpoint Temperature Schedule Name
  0;                                      !- Temperature Difference Between Cutout And Setpoint {deltaC}

OS:ScheduleTypeLimits,
  {097762dd-bd10-45cc-9442-04fe80b48bfc}, !- Handle
  Temperature,                            !- Name
  ,                                       !- Lower Limit Value
  ,                                       !- Upper Limit Value
  Continuous,                             !- Numeric Type
  Temperature;                            !- Unit Type

OS:Surface,
  {5c377fff-76cf-4d4a-8fec-fb8cc95cb392}, !- Handle
  Roof1,                                  !- Name
  RoofCeiling,                            !- Surface Type
  {3cd5649c-f557-4d61-9951-8670cd80b272}, !- Construction Name
  {30db35b8-a1c1-4312-b617-ca831ced97e2}, !- Space Name
  Outdoors,                               !- Outside Boundary Condition
  ,                                       !- Outside Boundary Condition Object
  SunExposed,                             !- Sun Exposure
  WindExposed,                            !- Wind Exposure
  ,                                       !- View Factor to Ground
  ,                                       !- Number of Vertices
  -8.42346109387347, 8.42346109387347, 2.4384, !- X,Y,Z Vertex 1 {m}
  -8.42346109387347, -8.42346109387347, 2.4384, !- X,Y,Z Vertex 2 {m}
  8.42346109387347, -8.42346109387347, 2.4384, !- X,Y,Z Vertex 3 {m}
  8.42346109387347, 8.42346109387347, 2.4384; !- X,Y,Z Vertex 4 {m}

OS:AdditionalProperties,
  {618ac533-04e0-4677-ad26-3a9481974aae}, !- Handle
  {5c377fff-76cf-4d4a-8fec-fb8cc95cb392}, !- Object Name
  Length,                                 !- Feature Name 1
  Double,                                 !- Feature Data Type 1
  55.27205442174192,                      !- Feature Value 1
  Width,                                  !- Feature Name 2
  Double,                                 !- Feature Data Type 2
  55.272054421741913,                     !- Feature Value 2
  Azimuth,                                !- Feature Name 3
  Integer,                                !- Feature Data Type 3
  0,                                      !- Feature Value 3
  Tilt,                                   !- Feature Name 4
  Double,                                 !- Feature Data Type 4
  0,                                      !- Feature Value 4
  SurfaceType,                            !- Feature Name 5
  String,                                 !- Feature Data Type 5
  Roof;                                   !- Feature Value 5

OS:Material,
  {a673a7dc-a623-498b-aa89-5760abe0ec67}, !- Handle
  asphalt or fiberglass shingles,         !- Name
  Rough,                                  !- Roughness
  0.00635,                                !- Thickness {m}
  0.162714,                               !- Conductivity {W/m-K}
  1121.4,                                 !- Density {kg/m3}
  1465.45,                                !- Specific Heat {J/kg-K}
  0.9,                                    !- Thermal Absorptance
  0.85,                                   !- Solar Absorptance
  0.85;                                   !- Visible Absorptance

OS:Material,
  {72882604-5214-4fd9-abe7-9565e7b24780}, !- Handle
  roof stud and cavity,                   !- Name
  Rough,                                  !- Roughness
  0.0889,                                 !- Thickness {m}
  0.491900632004487,                      !- Conductivity {W/m-K}
  50.32683,                               !- Density {kg/m3}
  1063.80987585548,                       !- Specific Heat {J/kg-K}
  0.9,                                    !- Thermal Absorptance
  0.7,                                    !- Solar Absorptance
  0.7;                                    !- Visible Absorptance

OS:Material,
  {555b662d-18fc-410f-bda0-bcfeb3f1de46}, !- Handle
  gypsum board,                           !- Name
  Rough,                                  !- Roughness
  0.00254,                                !- Thickness {m}
  0.1602906,                              !- Conductivity {W/m-K}
  801,                                    !- Density {kg/m3}
  837.4,                                  !- Specific Heat {J/kg-K}
  0.9,                                    !- Thermal Absorptance
  0.6,                                    !- Solar Absorptance
  0.6;                                    !- Visible Absorptance

OS:Construction,
  {3cd5649c-f557-4d61-9951-8670cd80b272}, !- Handle
  Roof1 construction,                     !- Name
  ,                                       !- Surface Rendering Name
  {a673a7dc-a623-498b-aa89-5760abe0ec67}, !- Layer 1
  {72882604-5214-4fd9-abe7-9565e7b24780}, !- Layer 2
  {555b662d-18fc-410f-bda0-bcfeb3f1de46}; !- Layer 3

OS:Surface,
  {f86824cb-110d-4d17-800f-028770b3ecce}, !- Handle
  Wall1,                                  !- Name
  Wall,                                   !- Surface Type
  {c6400c81-e294-48e6-aaa4-5915eeb0469a}, !- Construction Name
  {30db35b8-a1c1-4312-b617-ca831ced97e2}, !- Space Name
  Outdoors,                               !- Outside Boundary Condition
  ,                                       !- Outside Boundary Condition Object
  SunExposed,                             !- Sun Exposure
  WindExposed,                            !- Wind Exposure
  ,                                       !- View Factor to Ground
  ,                                       !- Number of Vertices
  -50.3693117384615, 51.2983421384615, 0, !- X,Y,Z Vertex 1 {m}
  -50.3693117384615, 51.2983421384615, 2.4384, !- X,Y,Z Vertex 2 {m}
  -30.8354417384615, 51.2983421384615, 2.4384, !- X,Y,Z Vertex 3 {m}
  -30.8354417384615, 51.2983421384615, 0; !- X,Y,Z Vertex 4 {m}

OS:AdditionalProperties,
  {d63a3ac6-c7ab-4034-ae04-7676a1304937}, !- Handle
  {f86824cb-110d-4d17-800f-028770b3ecce}, !- Object Name
  Length,                                 !- Feature Name 1
  Double,                                 !- Feature Data Type 1
  64.087499999999991,                     !- Feature Value 1
  Azimuth,                                !- Feature Name 2
  Integer,                                !- Feature Data Type 2
  0,                                      !- Feature Value 2
  Tilt,                                   !- Feature Name 3
  Double,                                 !- Feature Data Type 3
  90,                                     !- Feature Value 3
  SurfaceType,                            !- Feature Name 4
  String,                                 !- Feature Data Type 4
  Wall;                                   !- Feature Value 4

OS:Material,
  {2313fee9-74f1-4f24-8a87-ff8c09b1fa96}, !- Handle
  wood siding,                            !- Name
  Rough,                                  !- Roughness
  0.0254,                                 !- Thickness {m}
  0.1024175,                              !- Conductivity {W/m-K}
  544.68,                                 !- Density {kg/m3}
  1172.36,                                !- Specific Heat {J/kg-K}
  0.9,                                    !- Thermal Absorptance
  0.7,                                    !- Solar Absorptance
  0.7;                                    !- Visible Absorptance

OS:Material,
  {14cf9d86-8c49-41c2-b2fe-42e79d9aa733}, !- Handle
  osb sheathing 0.5 in.,                  !- Name
  Rough,                                  !- Roughness
  0.0127,                                 !- Thickness {m}
  0.1154577,                              !- Conductivity {W/m-K}
  512.64,                                 !- Density {kg/m3}
  1214.23,                                !- Specific Heat {J/kg-K}
  0.9,                                    !- Thermal Absorptance
  0.7,                                    !- Solar Absorptance
  0.7;                                    !- Visible Absorptance

OS:Material,
  {1f37a2e0-fc0e-4e94-a4e2-8c4d77310599}, !- Handle
  wall stud and cavity,                   !- Name
  Rough,                                  !- Roughness
  0.1397,                                 !- Thickness {m}
  0.0929021674204099,                     !- Conductivity {W/m-K}
  139.0536,                               !- Density {kg/m3}
  1170.23755760369,                       !- Specific Heat {J/kg-K}
  0.9,                                    !- Thermal Absorptance
  0.7,                                    !- Solar Absorptance
  0.7;                                    !- Visible Absorptance

OS:Material,
  {f2515f7b-c46a-4a2c-8263-de8a710ca946}, !- Handle
  gypsum board 1,                         !- Name
  Rough,                                  !- Roughness
  0.0127,                                 !- Thickness {m}
  0.1602906,                              !- Conductivity {W/m-K}
  801,                                    !- Density {kg/m3}
  837.4,                                  !- Specific Heat {J/kg-K}
  0.9,                                    !- Thermal Absorptance
  0.6,                                    !- Solar Absorptance
  0.6;                                    !- Visible Absorptance

OS:Construction,
  {c6400c81-e294-48e6-aaa4-5915eeb0469a}, !- Handle
  Wall1 construction,                     !- Name
  ,                                       !- Surface Rendering Name
  {2313fee9-74f1-4f24-8a87-ff8c09b1fa96}, !- Layer 1
  {14cf9d86-8c49-41c2-b2fe-42e79d9aa733}, !- Layer 2
  {1f37a2e0-fc0e-4e94-a4e2-8c4d77310599}, !- Layer 3
  {f2515f7b-c46a-4a2c-8263-de8a710ca946}; !- Layer 4

OS:Surface,
  {6c720974-bd90-4611-8d0e-b31b05cb8b90}, !- Handle
  Wall2,                                  !- Name
  Wall,                                   !- Surface Type
  {6466fdba-e66f-4a76-8795-ca5063cd66a4}, !- Construction Name
  {30db35b8-a1c1-4312-b617-ca831ced97e2}, !- Space Name
  Outdoors,                               !- Outside Boundary Condition
  ,                                       !- Outside Boundary Condition Object
  SunExposed,                             !- Sun Exposure
  WindExposed,                            !- Wind Exposure
  ,                                       !- View Factor to Ground
  ,                                       !- Number of Vertices
  51.2983421384615, -36.2004102, 0,       !- X,Y,Z Vertex 1 {m}
  51.2983421384615, -36.2004102, 2.4384,  !- X,Y,Z Vertex 2 {m}
  51.2983421384615, -45.9692502, 2.4384,  !- X,Y,Z Vertex 3 {m}
  51.2983421384615, -45.9692502, 0;       !- X,Y,Z Vertex 4 {m}

OS:AdditionalProperties,
  {7ee2d08b-8b97-4e27-8608-34b0a7369385}, !- Handle
  {6c720974-bd90-4611-8d0e-b31b05cb8b90}, !- Object Name
  Length,                                 !- Feature Name 1
  Double,                                 !- Feature Data Type 1
  32.049999999999997,                     !- Feature Value 1
  Azimuth,                                !- Feature Name 2