
OS:Version,
  {d585681b-ad5a-43fd-8b72-99d87fb0e1e0}, !- Handle
  3.9.0;                                  !- Version Identifier

OS:SimulationControl,
  {ef9291d4-8e07-492e-a525-96b3989d7e1d}, !- Handle
  ,                                       !- Do Zone Sizing Calculation
  ,                                       !- Do System Sizing Calculation
  ,                                       !- Do Plant Sizing Calculation
  No;                                     !- Run Simulation for Sizing Periods

OS:Timestep,
  {cbb637f0-3f54-45dd-936f-6aa86b6644f6}, !- Handle
  1;                                      !- Number of Timesteps per Hour

OS:ShadowCalculation,
  {bb29051a-a407-4469-b486-8fe824c995df}, !- Handle
  PolygonClipping,                        !- Shading Calculation Method
  ,                                       !- Shading Calculation Update Frequency Method
  20,                                     !- Shading Calculation Update Frequency
  200,                                    !- Maximum Figures in Shadow Overlap Calculations
  ,                                       !- Polygon Clipping Algorithm
  512,                                    !- Pixel Counting Resolution
  ,                                       !- Sky Diffuse Modeling Algorithm
  No,                                     !- Output External Shading Calculation Results
  No,                                     !- Disable Self-Shading Within Shading Zone Groups
  No;                                     !- Disable Self-Shading From Shading Zone Groups to Other Zones

OS:SurfaceConvectionAlgorithm:Outside,
  {43fd4778-8871-44d6-b0aa-0f8db0899905}, !- Handle
  DOE-2;                                  !- Algorithm

OS:SurfaceConvectionAlgorithm:Inside,
  {a785efbc-21d8-421b-ab3e-dd8ce2f3bb89}, !- Handle
  TARP;                                   !- Algorithm

OS:ZoneCapacitanceMultiplier:ResearchSpecial,
  {ff39db88-632b-4460-a35e-bdb582800605}, !- Handle
  7,                                      !- Temperature Capacity Multiplier
  15,                                     !- Humidity Capacity Multiplier
  ;                                       !- Carbon Dioxide Capacity Multiplier

OS:ConvergenceLimits,
  {36a3d610-0dbb-4b1b-ae1f-6204adce74a0}, !- Handle
  0;                                      !- Minimum System Timestep {minutes}

OS:RunPeriod,
  {a7010f6b-724c-4820-b219-d1923507f208}, !- Handle
  Run Period 1,                           !- Name
  1,                                      !- Begin Month
  1,                                      !- Begin Day of Month
  12,                                     !- End Month
  31,                                     !- End Day of Month
  ,                                       !- Use Weather File Holidays and Special Days
  ,                                       !- Use Weather File Daylight Saving Period
  ,                                       !- Apply Weekend Holiday Rule
  ,                                       !- Use Weather File Rain Indicators
  ,                                       !- Use Weather File Snow Indicators
  ;                                       !- Number of Times Runperiod to be Repeated

OS:PerformancePrecisionTradeoffs,
  {62c35ec0-716a-4525-a47a-3a8f7e61e1bd}, !- Handle
  ,                                       !- Use Coil Direct Solutions
  CarrollMRT;                             !- Zone Radiant Exchange Algorithm

OS:WeatherFile,
  {912ce0ee-b4f0-4cdf-8718-951c4cb41262}, !- Handle
  Buffalo Niagara Intl Ap,                !- City
  NY,                                     !- State Province Region
  USA,                                    !- Country
  TMY3,                                   !- Data Source
  725280,                                 !- WMO Number
  42.93,                                  !- Latitude {deg}
  -78.73,                                 !- Longitude {deg}
  -5,                                     !- Time Zone {hr}
  215,                                    !- Elevation {m}
  /Users/nmoore/github/urbanopt-example-geojson-project/example_project/weather/USA_NY_Buffalo-Greater.Buffalo.Intl.AP.725280_TMY3.epw, !- Url
  6B50E0FF,                               !- Checksum
  ,                                       !- Start Date Actual Year
  Sunday;                                 !- Start Day of Week

OS:YearDescription,
  {ac9af0da-fd5e-490b-9e85-8d58dd2b4171}, !- Handle
  2007,                                   !- Calendar Year
  ,                                       !- Day of Week for Start Day
  ;                                       !- Is Leap Year

OS:Site,
  {d503acdd-f29f-4b46-830e-5752a4bee858}, !- Handle
  Buffalo Niagara Intl Ap_NY,             !- Name
  42.93,                                  !- Latitude {deg}
  -78.73,                                 !- Longitude {deg}
  -5,                                     !- Time Zone {hr}
  215,                                    !- Elevation {m}
  Suburbs,                                !- Terrain
  Yes;                                    !- Keep Site Location Information

OS:RunPeriodControl:DaylightSavingTime,
  {59719df3-4468-4cac-bcb8-36aa9229eecd}, !- Handle
  Mar 12,                                 !- Start Date
  Nov 5;                                  !- End Date

OS:Site:GroundTemperature:Shallow,
  {2950abd6-a22c-4d6f-bff3-aa9a3eab73d5}, !- Handle
  4.30207395723828,                       !- January Surface Ground Temperature {C}
  2.29327249652502,                       !- February Surface Ground Temperature {C}
  2.13240047156047,                       !- March Surface Ground Temperature {C}
  3.08567940719286,                       !- April Surface Ground Temperature {C}
  6.91256312497526,                       !- May Surface Ground Temperature {C}
  10.7216195949507,                       !- June Surface Ground Temperature {C}
  14.0238679822574,                       !- July Surface Ground Temperature {C}
  16.1157611184724,                       !- August Surface Ground Temperature {C}
  16.2934789303462,                       !- September Surface Ground Temperature {C}
  14.5920754632847,                       !- October Surface Ground Temperature {C}
  11.374036348653,                        !- November Surface Ground Temperature {C}
  7.68182621661674;                       !- December Surface Ground Temperature {C}

OS:ThermalZone,
  {d0f128c7-b95c-49dc-a3fb-c3aac1daa363}, !- Handle
  conditioned space,                      !- Name
  1,                                      !- Multiplier
  ,                                       !- Ceiling Height {m}
  475.79381486208,                        !- Volume {m3}
  ,                                       !- Floor Area {m2}
  ,                                       !- Zone Inside Convection Algorithm
  ,                                       !- Zone Outside Convection Algorithm
  ,                                       !- Zone Conditioning Equipment List Name
  {296caceb-687b-426b-8c68-434050c586e8}, !- Zone Air Inlet Port List
  {d52c1acc-bd4d-4136-8d27-ec2367f76dad}, !- Zone Air Exhaust Port List
  {b02e08eb-142c-4a1d-9a50-046cf2611f11}, !- Zone Air Node Name
  {7ff56c6e-f9d1-4e3f-abdf-5920abf5302b}, !- Zone Return Air Port List
  ,                                       !- Primary Daylighting Control Name
  ,                                       !- Fraction of Zone Controlled by Primary Daylighting Control
  ,                                       !- Secondary Daylighting Control Name
  ,                                       !- Fraction of Zone Controlled by Secondary Daylighting Control
  ,                                       !- Illuminance Map Name
  ,                                       !- Group Rendering Name
  {00aaba18-75b2-4e58-b165-828214cabfd2}, !- Thermostat Name
  No;                                     !- Use Ideal Air Loads

OS:Node,
  {625649bc-d301-4748-b07b-ab1f2ea367f0}, !- Handle
  Node 1,                                 !- Name
  {b02e08eb-142c-4a1d-9a50-046cf2611f11}, !- Inlet Port
  ;                                       !- Outlet Port

OS:Connection,
  {b02e08eb-142c-4a1d-9a50-046cf2611f11}, !- Handle
  {d0f128c7-b95c-49dc-a3fb-c3aac1daa363}, !- Source Object
  11,                                     !- Outlet Port
  {625649bc-d301-4748-b07b-ab1f2ea367f0}, !- Target Object
  2;                                      !- Inlet Port

OS:PortList,
  {296caceb-687b-426b-8c68-434050c586e8}, !- Handle
  {d0f128c7-b95c-49dc-a3fb-c3aac1daa363}, !- HVAC Component
  {293634f6-5b8f-48c6-bb9b-8dcdb2510c88}; !- Port 1

OS:PortList,
  {d52c1acc-bd4d-4136-8d27-ec2367f76dad}, !- Handle
  {d0f128c7-b95c-49dc-a3fb-c3aac1daa363}; !- HVAC Component

OS:PortList,
  {7ff56c6e-f9d1-4e3f-abdf-5920abf5302b}, !- Handle
  {d0f128c7-b95c-49dc-a3fb-c3aac1daa363}, !- HVAC Component
  {2363339f-aa7b-42da-84a9-65fe1f06b8f3}; !- Port 1

OS:Sizing:Zone,
  {ec9ea063-284c-4eea-b1ed-cb6cf7e21c4e}, !- Handle
  {d0f128c7-b95c-49dc-a3fb-c3aac1daa363}, !- Zone or ZoneList Name
  SupplyAirTemperature,                   !- Zone Cooling Design Supply Air Temperature Input Method
  14,                                     !- Zone Cooling Design Supply Air Temperature {C}
  11.11,                                  !- Zone Cooling Design Supply Air Temperature Difference {deltaC}
  SupplyAirTemperature,                   !- Zone Heating Design Supply Air Temperature Input Method
  40,                                     !- Zone Heating Design Supply Air Temperature {C}
  11.11,                                  !- Zone Heating Design Supply Air Temperature Difference {deltaC}
  0.0085,                                 !- Zone Cooling Design Supply Air Humidity Ratio {kg-H2O/kg-air}
  0.008,                                  !- Zone Heating Design Supply Air Humidity Ratio {kg-H2O/kg-air}
  ,                                       !- Zone Heating Sizing Factor
  ,                                       !- Zone Cooling Sizing Factor
  DesignDay,                              !- Cooling Design Air Flow Method
  ,                                       !- Cooling Design Air Flow Rate {m3/s}
  ,                                       !- Cooling Minimum Air Flow per Zone Floor Area {m3/s-m2}
  ,                                       !- Cooling Minimum Air Flow {m3/s}
  ,                                       !- Cooling Minimum Air Flow Fraction
  DesignDay,                              !- Heating Design Air Flow Method
  ,                                       !- Heating Design Air Flow Rate {m3/s}
  ,                                       !- Heating Maximum Air Flow per Zone Floor Area {m3/s-m2}
  ,                                       !- Heating Maximum Air Flow {m3/s}
  ,                                       !- Heating Maximum Air Flow Fraction
  No,                                     !- Account for Dedicated Outdoor Air System
  NeutralSupplyAir,                       !- Dedicated Outdoor Air System Control Strategy
  autosize,                               !- Dedicated Outdoor Air Low Setpoint Temperature for Design {C}
  autosize,                               !- Dedicated Outdoor Air High Setpoint Temperature for Design {C}
  Sensible Load Only No Latent Load,      !- Zone Load Sizing Method
  HumidityRatioDifference,                !- Zone Latent Cooling Design Supply Air Humidity Ratio Input Method
  ,                                       !- Zone Dehumidification Design Supply Air Humidity Ratio {kgWater/kgDryAir}
  0.005,                                  !- Zone Cooling Design Supply Air Humidity Ratio Difference {kgWater/kgDryAir}
  HumidityRatioDifference,                !- Zone Latent Heating Design Supply Air Humidity Ratio Input Method
  ,                                       !- Zone Humidification Design Supply Air Humidity Ratio {kgWater/kgDryAir}
  0.005,                                  !- Zone Humidification Design Supply Air Humidity Ratio Difference {kgWater/kgDryAir}
  ,                                       !- Zone Humidistat Dehumidification Set Point Schedule Name
  ,                                       !- Zone Humidistat Humidification Set Point Schedule Name
  ,                                       !- Design Zone Air Distribution Effectiveness in Cooling Mode
  ,                                       !- Design Zone Air Distribution Effectiveness in Heating Mode
  ,                                       !- Design Zone Secondary Recirculation Fraction {dimensionless}
  ,                                       !- Design Minimum Zone Ventilation Efficiency {dimensionless}
  Coincident;                             !- Sizing Option

OS:ZoneHVAC:EquipmentList,
  {0cab8e0b-4918-4d76-9ebb-1750185f50ef}, !- Handle
  Zone HVAC Equipment List 1,             !- Name
  {d0f128c7-b95c-49dc-a3fb-c3aac1daa363}, !- Thermal Zone
  ,                                       !- Load Distribution Scheme
  {6f4a97d9-d91c-4afb-9434-4be3d8edef5c}, !- Zone Equipment 1
  1,                                      !- Zone Equipment Cooling Sequence 1
  1,                                      !- Zone Equipment Heating or No-Load Sequence 1
  {edaa1707-2fd4-43e3-96af-f9717530f784}, !- Zone Equipment Sequential Cooling Fraction Schedule Name 1
  {2f483d3f-b178-44fb-9789-baf28e0f0990}; !- Zone Equipment Sequential Heating Fraction Schedule Name 1

OS:AdditionalProperties,
  {19e8ea61-4d30-4136-be41-5682260bea64}, !- Handle
  {d0f128c7-b95c-49dc-a3fb-c3aac1daa363}, !- Object Name
  ObjectType,                             !- Feature Name 1
  String,                                 !- Feature Data Type 1
  conditioned space;                      !- Feature Value 1

OS:Space,
  {6ddfd9cb-d727-4095-be36-f7d7f59afde8}, !- Handle
  conditioned space 1,                    !- Name
  ,                                       !- Space Type Name
  ,                                       !- Default Construction Set Name
  ,                                       !- Default Schedule Set Name
  ,                                       !- Direction of Relative North {deg}
  ,                                       !- X Origin {m}
  ,                                       !- Y Origin {m}
  ,                                       !- Z Origin {m}
  ,                                       !- Building Story Name
  {d0f128c7-b95c-49dc-a3fb-c3aac1daa363}, !- Thermal Zone Name
  ,                                       !- Part of Total Floor Area
  ,                                       !- Design Specification Outdoor Air Object Name
  ,                                       !- Building Unit Name
  475.79381486208;                        !- Volume {m3}

OS:Schedule:Ruleset,
  {191d84c4-42f3-46db-8d91-c05d199a4fc9}, !- Handle
  heating setpoint,                       !- Name
  {e30fa123-6056-4632-af36-c80f055d7fea}, !- Schedule Type Limits Name
  {2e6cb039-6deb-492f-aeeb-905c014e5aad}; !- Default Day Schedule Name

OS:Schedule:Day,
  {2e6cb039-6deb-492f-aeeb-905c014e5aad}, !- Handle
  heating setpoint default day,           !- Name
  {e30fa123-6056-4632-af36-c80f055d7fea}, !- Schedule Type Limits Name
  ,                                       !- Interpolate to Timestep
  24,                                     !- Hour 1
  0,                                      !- Minute 1
  0;                                      !- Value Until Time 1

OS:Schedule:Rule,
  {19fae1e0-acf3-450c-bd33-8ca29e74f6a8}, !- Handle
  heating setpoint allday rule,           !- Name
  {191d84c4-42f3-46db-8d91-c05d199a4fc9}, !- Schedule Ruleset Name
  0,                                      !- Rule Order
  {3265bc89-331a-457b-ab42-092bde539df6}, !- Day Schedule Name
  Yes,                                    !- Apply Sunday
  Yes,                                    !- Apply Monday
  Yes,                                    !- Apply Tuesday
  Yes,                                    !- Apply Wednesday
  Yes,                                    !- Apply Thursday
  Yes,                                    !- Apply Friday
  Yes,                                    !- Apply Saturday
  DateRange,                              !- Date Specification Type
  1,                                      !- Start Month
  1,                                      !- Start Day
  12,                                     !- End Month
  31;                                     !- End Day

OS:Schedule:Day,
  {3265bc89-331a-457b-ab42-092bde539df6}, !- Handle
  heating setpoint day,                   !- Name
  {e30fa123-6056-4632-af36-c80f055d7fea}, !- Schedule Type Limits Name
  ,                                       !- Interpolate to Timestep
  24,                                     !- Hour 1
  0,                                      !- Minute 1
  20;                                     !- Value Until Time 1

OS:Schedule:Ruleset,
  {3d5e0dc9-8f16-4c75-8c27-dc5d57a726ed}, !- Handle
  cooling setpoint,                       !- Name
  {e30fa123-6056-4632-af36-c80f055d7fea}, !- Schedule Type Limits Name
  {3e5dec12-3a35-40bc-ad3b-9b69a5b08caf}; !- Default Day Schedule Name

OS:Schedule:Day,
  {3e5dec12-3a35-40bc-ad3b-9b69a5b08caf}, !- Handle
  cooling setpoint default day,           !- Name
  {e30fa123-6056-4632-af36-c80f055d7fea}, !- Schedule Type Limits Name
  ,                                       !- Interpolate to Timestep
  24,                                     !- Hour 1
  0,                                      !- Minute 1
  0;                                      !- Value Until Time 1

OS:Schedule:Rule,
  {8fd35373-225d-445f-b081-62cdcf7de2b7}, !- Handle
  cooling setpoint allday rule,           !- Name
  {3d5e0dc9-8f16-4c75-8c27-dc5d57a726ed}, !- Schedule Ruleset Name
  0,                                      !- Rule Order
  {b8626901-832d-423e-96e2-d830a33ec647}, !- Day Schedule Name
  Yes,                                    !- Apply Sunday
  Yes,                                    !- Apply Monday
  Yes,                                    !- Apply Tuesday
  Yes,                                    !- Apply Wednesday
  Yes,                                    !- Apply Thursday
  Yes,                                    !- Apply Friday
  Yes,                                    !- Apply Saturday
  DateRange,                              !- Date Specification Type
  1,                                      !- Start Month
  1,                                      !- Start Day
  12,                                     !- End Month
  31;                                     !- End Day

OS:Schedule:Day,
  {b8626901-832d-423e-96e2-d830a33ec647}, !- Handle
  cooling setpoint day,                   !- Name
  {e30fa123-6056-4632-af36-c80f055d7fea}, !- Schedule Type Limits Name
  ,                                       !- Interpolate to Timestep
  24,                                     !- Hour 1
  0,                                      !- Minute 1
  25.5555555555556;                       !- Value Until Time 1

OS:ThermostatSetpoint:DualSetpoint,
  {00aaba18-75b2-4e58-b165-828214cabfd2}, !- Handle
  conditioned space temperature setpoint, !- Name
  {191d84c4-42f3-46db-8d91-c05d199a4fc9}, !- Heating Setpoint Temperature Schedule Name
  {3d5e0dc9-8f16-4c75-8c27-dc5d57a726ed}, !- Cooling Setpoint Temperature Schedule Name
  0;                                      !- Temperature Difference Between Cutout And Setpoint {deltaC}

OS:ScheduleTypeLimits,
  {e30fa123-6056-4632-af36-c80f055d7fea}, !- Handle
  Temperature,                            !- Name
  ,                                       !- Lower Limit Value
  ,                                       !- Upper Limit Value
  Continuous,                             !- Numeric Type
  Temperature;                            !- Unit Type

OS:Surface,
  {a99e59f6-6f28-4434-ba23-931b84508da2}, !- Handle
  Roof1,                                  !- Name
  RoofCeiling,                            !- Surface Type
  {55a5fc64-cee1-4dea-968a-701110f513f6}, !- Construction Name
  {6ddfd9cb-d727-4095-be36-f7d7f59afde8}, !- Space Name
  Outdoors,                               !- Outside Boundary Condition
  ,                                       !- Outside Boundary Condition Object
  SunExposed,                             !- Sun Exposure
  WindExposed,                            !- Wind Exposure
  ,                                       !- View Factor to Ground
  ,                                       !- Number of Vertices
  -5.95628646053898, 5.95628646053898, 2.4384, !- X,Y,Z Vertex 1 {m}
  -5.95628646053898, -5.95628646053898, 2.4384, !- X,Y,Z Vertex 2 {m}
  5.95628646053898, -5.95628646053898, 2.4384, !- X,Y,Z Vertex 3 {m}
  5.95628646053898, 5.95628646053898, 2.4384; !- X,Y,Z Vertex 4 {m}

OS:AdditionalProperties,
  {c0c8d2c3-fed8-426a-abad-4446b325ead1}, !- Handle
  {a99e59f6-6f28-4434-ba23-931b84508da2}, !- Object Name
  Length,                                 !- Feature Name 1
  Double,                                 !- Feature Data Type 1
  39.083244491725608,                     !- Feature Value 1
  Width,                                  !- Feature Name 2
  Double,                                 !- Feature Data Type 2
  39.083244491725608,                     !- Feature Value 2
  Azimuth,                                !- Feature Name 3
  Integer,                                !- Feature Data Type 3
  0,                                      !- Feature Value 3
  Tilt,                                   !- Feature Name 4
  Double,                                 !- Feature Data Type 4
  0,                                      !- Feature Value 4
  SurfaceType,                            !- Feature Name 5
  String,                                 !- Feature Data Type 5
  Roof;                                   !- Feature Value 5

OS:Material,
  {5752026f-0db1-49b5-a0b6-967b5bb82bae}, !- Handle
  asphalt or fiberglass shingles,         !- Name
  Rough,                                  !- Roughness
  0.00635,                                !- Thickness {m}
  0.162714,                               !- Conductivity {W/m-K}
  1121.4,                                 !- Density {kg/m3}
  1465.45,                                !- Specific Heat {J/kg-K}
  0.9,                                    !- Thermal Absorptance
  0.85,                                   !- Solar Absorptance
  0.85;                                   !- Visible Absorptance

OS:Material,
  {a0bb36e3-7546-4ac4-8df4-bd83bb5da731}, !- Handle
  roof stud and cavity,                   !- Name
  Rough,                                  !- Roughness
  0.0889,                                 !- Thickness {m}
  0.491900632004487,                      !- Conductivity {W/m-K}
  50.32683,                               !- Density {kg/m3}
  1063.80987585548,                       !- Specific Heat {J/kg-K}
  0.9,                                    !- Thermal Absorptance
  0.7,                                    !- Solar Absorptance
  0.7;                                    !- Visible Absorptance

OS:Material,
  {c7668282-54bd-470f-aff7-0bdcf25794b1}, !- Handle
  gypsum board,                           !- Name
  Rough,                                  !- Roughness
  0.00254,                                !- Thickness {m}
  0.1602906,                              !- Conductivity {W/m-K}
  801,                                    !- Density {kg/m3}
  837.4,                                  !- Specific Heat {J/kg-K}
  0.9,                                    !- Thermal Absorptance
  0.6,                                    !- Solar Absorptance
  0.6;                                    !- Visible Absorptance

OS:Construction,
  {55a5fc64-cee1-4dea-968a-701110f513f6}, !- Handle
  Roof1 construction,                     !- Name
  ,                                       !- Surface Rendering Name
  {5752026f-0db1-49b5-a0b6-967b5bb82bae}, !- Layer 1
  {a0bb36e3-7546-4ac4-8df4-bd83bb5da731}, !- Layer 2
  {c7668282-54bd-470f-aff7-0bdcf25794b1}; !- Layer 3

OS:Surface,
  {4e5b2382-c7e2-4519-9643-791a332be5c3}, !- Handle
  Wall1,                                  !- Name
  Wall,                                   !- Surface Type
  {9328a540-97c2-4d89-ba4d-1cc838ec3532}, !- Construction Name
  {6ddfd9cb-d727-4095-be36-f7d7f59afde8}, !- Space Name
  Outdoors,                               !- Outside Boundary Condition
  ,                                       !- Outside Boundary Condition Object
  SunExposed,                             !- Sun Exposure
  WindExposed,                            !- Wind Exposure
  ,                                       !- View Factor to Ground
  ,                                       !- Number of Vertices
  -29.479875, 30.4089054, 0,              !- X,Y,Z Vertex 1 {m}
  -29.479875, 30.4089054, 4.8768,         !- X,Y,Z Vertex 2 {m}
  -21.055965, 30.4089054, 4.8768,         !- X,Y,Z Vertex 3 {m}
  -21.055965, 30.4089054, 0;              !- X,Y,Z Vertex 4 {m}

OS:AdditionalProperties,
  {14a2c182-f3eb-4e12-8b90-71d1404c71bd}, !- Handle
  {4e5b2382-c7e2-4519-9643-791a332be5c3}, !- Object Name
  Length,                                 !- Feature Name 1
  Double,                                 !- Feature Data Type 1
  27.637499999999999,                     !- Feature Value 1
  Azimuth,                                !- Feature Name 2
  Integer,                                !- Feature Data Type 2
  0,                                      !- Feature Value 2
  Tilt,                                   !- Feature Name 3
  Double,                                 !- Feature Data Type 3
  90,                                     !- Feature Value 3
  SurfaceType,                            !- Feature Name 4
  String,                                 !- Feature Data Type 4
  Wall;                                   !- Feature Value 4

OS:Material,
  {f05fc0ab-a87d-46c0-a414-1194126ef713}, !- Handle
  wood siding,                            !- Name
  Rough,                                  !- Roughness
  0.0254,                                 !- Thickness {m}
  0.1024175,                              !- Conductivity {W/m-K}
  544.68,                                 !- Density {kg/m3}
  1172.36,                                !- Specific Heat {J/kg-K}
  0.9,                                    !- Thermal Absorptance
  0.7,                                    !- Solar Absorptance
  0.7;                                    !- Visible Absorptance

OS:Material,
  {31774771-1622-4e85-8ed6-edb33c9291bd}, !- Handle
  osb sheathing 0.5 in.,                  !- Name
  Rough,                                  !- Roughness
  0.0127,                                 !- Thickness {m}
  0.1154577,                              !- Conductivity {W/m-K}
  512.64,                                 !- Density {kg/m3}
  1214.23,                                !- Specific Heat {J/kg-K}
  0.9,                                    !- Thermal Absorptance
  0.7,                                    !- Solar Absorptance
  0.7;                                    !- Visible Absorptance

OS:Material,
  {7d6d18bb-e410-4c31-a416-4377e889077f}, !- Handle
  wall stud and cavity,                   !- Name
  Rough,                                  !- Roughness
  0.1397,                                 !- Thickness {m}
  0.0929021674204099,                     !- Conductivity {W/m-K}
  139.0536,                               !- Density {kg/m3}
  1170.23755760369,                       !- Specific Heat {J/kg-K}
  0.9,                                    !- Thermal Absorptance
  0.7,                                    !- Solar Absorptance
  0.7;                                    !- Visible Absorptance

OS:Material,
  {49aab250-a06a-486a-9b71-8a4ee9ddae36}, !- Handle
  gypsum board 1,                         !- Name
  Rough,                                  !- Roughness
  0.0127,                                 !- Thickness {m}
  0.1602906,                              !- Conductivity {W/m-K}
  801,                                    !- Density {kg/m3}
  837.4,                                  !- Specific Heat {J/kg-K}
  0.9,                                    !- Thermal Absorptance
  0.6,                                    !- Solar Absorptance
  0.6;                                    !- Visible Absorptance

OS:Construction,
  {9328a540-97c2-4d89-ba4d-1cc838ec3532}, !- Handle
  Wall1 construction,                     !- Name
  ,                                       !- Surface Rendering Name
  {f05fc0ab-a87d-46c0-a414-1194126ef713}, !- Layer 1
  {31774771-1622-4e85-8ed6-edb33c9291bd}, !- Layer 2
  {7d6d18bb-e410-4c31-a416-4377e889077f}, !- Layer 3
  {49aab250-a06a-486a-9b71-8a4ee9ddae36}; !- Layer 4

OS:Surface,
  {ce79da8c-ac08-4765-9dd8-71bfa00fc765}, !- Handle
  Wall2,                                  !- Name
  Wall,                                   !- Surface Type
  {d7495f82-9b73-4e81-b458-6ca045aac363}, !- Construction Name
  {6ddfd9cb-d727-4095-be36-f7d7f59afde8}, !- Space Name
  Outdoors,                               !- Outside Boundary Condition
  ,                                       !- Outside Boundary Condition Object
  SunExposed,                             !- Sun Exposure
  WindExposed,                            !- Wind Exposure
  ,                                       !- View Factor to Ground
  ,                                       !- Number of Vertices
  30.4089054, -26.1969504, 0,             !- X,Y,Z Vertex 1 {m}
  30.4089054, -26.1969504, 4.8768,        !- X,Y,Z Vertex 2 {m}
  30.4089054, -30.4089054, 4.8768,        !- X,Y,Z Vertex 3 {m}
  30.4089054, -30.4089054, 0;             !- X,Y,Z Vertex 4 {m}

OS:AdditionalProperties,
  {8f759ec2-756d-4977-96c9-e76ff097e21b}, !- Handle
  {ce79da8c-ac08-4765-9dd8-71bfa00fc765}, !- Object Name
  Length,                                 !- Feature Name 1
  Double,                                 !- Feature Data Type 1
  13.81875,                               !- Feature Value 1
  Azimuth,                                !- Feature Name 2