
OS:Version,
  {e3a2ea7e-1dcf-473a-b13e-d8b266bb015e}, !- Handle
  3.10.0;                                 !- Version Identifier

OS:SimulationControl,
  {1e0b2d1c-eb31-4abb-a48e-d53ea11894a6}, !- Handle
  ,                                       !- Do Zone Sizing Calculation
  ,                                       !- Do System Sizing Calculation
  ,                                       !- Do Plant Sizing Calculation
  No;                                     !- Run Simulation for Sizing Periods

OS:Timestep,
  {8635b524-39fe-4b81-9864-78eec9274e5d}, !- Handle
  1;                                      !- Number of Timesteps per Hour

OS:ShadowCalculation,
  {a8032395-546d-446e-8cd2-90a23796b906}, !- Handle
  PolygonClipping,                        !- Shading Calculation Method
  ,                                       !- Shading Calculation Update Frequency Method
  20,                                     !- Shading Calculation Update Frequency
  200,                                    !- Maximum Figures in Shadow Overlap Calculations
  ,                                       !- Polygon Clipping Algorithm
  512,                                    !- Pixel Counting Resolution
  ,                                       !- Sky Diffuse Modeling Algorithm
  No,                                     !- Output External Shading Calculation Results
  No,                                     !- Disable Self-Shading Within Shading Zone Groups
  No;                                     !- Disable Self-Shading From Shading Zone Groups to Other Zones

OS:SurfaceConvectionAlgorithm:Outside,
  {cc8c7607-f531-4f9b-aa9d-5ae41bcddb08}, !- Handle
  DOE-2;                                  !- Algorithm

OS:SurfaceConvectionAlgorithm:Inside,
  {26449b83-b2dd-4941-9ad8-d8e62028802c}, !- Handle
  TARP;                                   !- Algorithm

OS:ZoneCapacitanceMultiplier:ResearchSpecial,
  {847bde77-f2c5-42b9-9d53-424629bad784}, !- Handle
  7,                                      !- Temperature Capacity Multiplier
  15,                                     !- Humidity Capacity Multiplier
  ;                                       !- Carbon Dioxide Capacity Multiplier

OS:ConvergenceLimits,
  {5094f839-03f2-4935-b28c-68702e9948b8}, !- Handle
  0;                                      !- Minimum System Timestep {minutes}

OS:RunPeriod,
  {8dc9565c-ff9e-4e28-89f6-41ee9edc5350}, !- Handle
  Run Period 1,                           !- Name
  1,                                      !- Begin Month
  1,                                      !- Begin Day of Month
  12,                                     !- End Month
  31,                                     !- End Day of Month
  ,                                       !- Use Weather File Holidays and Special Days
  ,                                       !- Use Weather File Daylight Saving Period
  ,                                       !- Apply Weekend Holiday Rule
  ,                                       !- Use Weather File Rain Indicators
  ,                                       !- Use Weather File Snow Indicators
  ;                                       !- Number of Times Runperiod to be Repeated

OS:PerformancePrecisionTradeoffs,
  {c1f3de4f-fce5-4a8b-a21f-6509f3f135a3}, !- Handle
  ,                                       !- Use Coil Direct Solutions
  CarrollMRT;                             !- Zone Radiant Exchange Algorithm

OS:WeatherFile,
  {79128cf6-fd54-4cb8-8be0-bbbf81681f5c}, !- Handle
  Buffalo Niagara Intl Ap,                !- City
  NY,                                     !- State Province Region
  USA,                                    !- Country
  TMY3,                                   !- Data Source
  725280,                                 !- WMO Number
  42.93,                                  !- Latitude {deg}
  -78.73,                                 !- Longitude {deg}
  -5,                                     !- Time Zone {hr}
  215,                                    !- Elevation {m}
  /Users/nmoore/github/urbanopt-example-geojson-project/example_project/weather/USA_NY_Buffalo-Greater.Buffalo.Intl.AP.725280_TMY3.epw, !- Url
  6B50E0FF,                               !- Checksum
  ,                                       !- Start Date Actual Year
  Sunday;                                 !- Start Day of Week

OS:YearDescription,
  {a267d73b-a867-4607-8be5-865ba3818bab}, !- Handle
  2007,                                   !- Calendar Year
  ,                                       !- Day of Week for Start Day
  ;                                       !- Is Leap Year

OS:Site,
  {5f3a5c1f-f666-418e-b4a3-2dfc077be4a0}, !- Handle
  Buffalo Niagara Intl Ap_NY,             !- Name
  42.93,                                  !- Latitude {deg}
  -78.73,                                 !- Longitude {deg}
  -5,                                     !- Time Zone {hr}
  215,                                    !- Elevation {m}
  Suburbs,                                !- Terrain
  Yes;                                    !- Keep Site Location Information

OS:RunPeriodControl:DaylightSavingTime,
  {c611cde4-c33c-44b9-928e-53747364674c}, !- Handle
  Mar 12,                                 !- Start Date
  Nov 5;                                  !- End Date

OS:Site:GroundTemperature:Shallow,
  {43e2e987-48ff-4054-b493-6b029a662191}, !- Handle
  4.30207395723828,                       !- January Surface Ground Temperature {C}
  2.29327249652502,                       !- February Surface Ground Temperature {C}
  2.13240047156047,                       !- March Surface Ground Temperature {C}
  3.08567940719286,                       !- April Surface Ground Temperature {C}
  6.91256312497526,                       !- May Surface Ground Temperature {C}
  10.7216195949507,                       !- June Surface Ground Temperature {C}
  14.0238679822574,                       !- July Surface Ground Temperature {C}
  16.1157611184724,                       !- August Surface Ground Temperature {C}
  16.2934789303462,                       !- September Surface Ground Temperature {C}
  14.5920754632847,                       !- October Surface Ground Temperature {C}
  11.374036348653,                        !- November Surface Ground Temperature {C}
  7.68182621661674;                       !- December Surface Ground Temperature {C}

OS:ThermalZone,
  {98eb34b2-8a15-426d-8fc1-1fdb358775b3}, !- Handle
  conditioned space,                      !- Name
  1,                                      !- Multiplier
  ,                                       !- Ceiling Height {m}
  475.79381486208,                        !- Volume {m3}
  ,                                       !- Floor Area {m2}
  ,                                       !- Zone Inside Convection Algorithm
  ,                                       !- Zone Outside Convection Algorithm
  ,                                       !- Zone Conditioning Equipment List Name
  {b8a5fb65-5506-4b2f-a5eb-0a8f736ee21c}, !- Zone Air Inlet Port List
  {4cba3783-0c85-49da-b4a5-5f9f0455de70}, !- Zone Air Exhaust Port List
  {93700d44-24a1-4ef0-ac09-657e8c153b29}, !- Zone Air Node Name
  {711bdbac-77e6-4fa7-8a70-79b5e0c47dec}, !- Zone Return Air Port List
  ,                                       !- Primary Daylighting Control Name
  ,                                       !- Fraction of Zone Controlled by Primary Daylighting Control
  ,                                       !- Secondary Daylighting Control Name
  ,                                       !- Fraction of Zone Controlled by Secondary Daylighting Control
  ,                                       !- Illuminance Map Name
  ,                                       !- Group Rendering Name
  {abc80133-ed27-4739-bd7a-051b315cc9b2}, !- Thermostat Name
  No;                                     !- Use Ideal Air Loads

OS:Node,
  {dba0d47e-1d90-4f8c-8357-aff59b63e5f7}, !- Handle
  Node 1,                                 !- Name
  {93700d44-24a1-4ef0-ac09-657e8c153b29}, !- Inlet Port
  ;                                       !- Outlet Port

OS:Connection,
  {93700d44-24a1-4ef0-ac09-657e8c153b29}, !- Handle
  {98eb34b2-8a15-426d-8fc1-1fdb358775b3}, !- Source Object
  11,                                     !- Outlet Port
  {dba0d47e-1d90-4f8c-8357-aff59b63e5f7}, !- Target Object
  2;                                      !- Inlet Port

OS:PortList,
  {b8a5fb65-5506-4b2f-a5eb-0a8f736ee21c}, !- Handle
  {98eb34b2-8a15-426d-8fc1-1fdb358775b3}, !- HVAC Component
  {2690321b-f2b1-4fcb-b671-45f874f74095}; !- Port 1

OS:PortList,
  {4cba3783-0c85-49da-b4a5-5f9f0455de70}, !- Handle
  {98eb34b2-8a15-426d-8fc1-1fdb358775b3}; !- HVAC Component

OS:PortList,
  {711bdbac-77e6-4fa7-8a70-79b5e0c47dec}, !- Handle
  {98eb34b2-8a15-426d-8fc1-1fdb358775b3}, !- HVAC Component
  {0983f9cb-fb19-467d-8c66-14345ecc3231}; !- Port 1

OS:Sizing:Zone,
  {cad284a7-762d-48eb-aa15-a10c66ade12d}, !- Handle
  {98eb34b2-8a15-426d-8fc1-1fdb358775b3}, !- Zone or ZoneList Name
  SupplyAirTemperature,                   !- Zone Cooling Design Supply Air Temperature Input Method
  14,                                     !- Zone Cooling Design Supply Air Temperature {C}
  11.11,                                  !- Zone Cooling Design Supply Air Temperature Difference {deltaC}
  SupplyAirTemperature,                   !- Zone Heating Design Supply Air Temperature Input Method
  40,                                     !- Zone Heating Design Supply Air Temperature {C}
  11.11,                                  !- Zone Heating Design Supply Air Temperature Difference {deltaC}
  0.0085,                                 !- Zone Cooling Design Supply Air Humidity Ratio {kg-H2O/kg-air}
  0.008,                                  !- Zone Heating Design Supply Air Humidity Ratio {kg-H2O/kg-air}
  ,                                       !- Zone Heating Sizing Factor
  ,                                       !- Zone Cooling Sizing Factor
  DesignDay,                              !- Cooling Design Air Flow Method
  ,                                       !- Cooling Design Air Flow Rate {m3/s}
  ,                                       !- Cooling Minimum Air Flow per Zone Floor Area {m3/s-m2}
  ,                                       !- Cooling Minimum Air Flow {m3/s}
  ,                                       !- Cooling Minimum Air Flow Fraction
  DesignDay,                              !- Heating Design Air Flow Method
  ,                                       !- Heating Design Air Flow Rate {m3/s}
  ,                                       !- Heating Maximum Air Flow per Zone Floor Area {m3/s-m2}
  ,                                       !- Heating Maximum Air Flow {m3/s}
  ,                                       !- Heating Maximum Air Flow Fraction
  No,                                     !- Account for Dedicated Outdoor Air System
  NeutralSupplyAir,                       !- Dedicated Outdoor Air System Control Strategy
  autosize,                               !- Dedicated Outdoor Air Low Setpoint Temperature for Design {C}
  autosize,                               !- Dedicated Outdoor Air High Setpoint Temperature for Design {C}
  Sensible Load Only No Latent Load,      !- Zone Load Sizing Method
  HumidityRatioDifference,                !- Zone Latent Cooling Design Supply Air Humidity Ratio Input Method
  ,                                       !- Zone Dehumidification Design Supply Air Humidity Ratio {kgWater/kgDryAir}
  0.005,                                  !- Zone Cooling Design Supply Air Humidity Ratio Difference {kgWater/kgDryAir}
  HumidityRatioDifference,                !- Zone Latent Heating Design Supply Air Humidity Ratio Input Method
  ,                                       !- Zone Humidification Design Supply Air Humidity Ratio {kgWater/kgDryAir}
  0.005,                                  !- Zone Humidification Design Supply Air Humidity Ratio Difference {kgWater/kgDryAir}
  ,                                       !- Zone Humidistat Dehumidification Set Point Schedule Name
  ,                                       !- Zone Humidistat Humidification Set Point Schedule Name
  ,                                       !- Design Zone Air Distribution Effectiveness in Cooling Mode
  ,                                       !- Design Zone Air Distribution Effectiveness in Heating Mode
  ,                                       !- Design Zone Secondary Recirculation Fraction {dimensionless}
  ,                                       !- Design Minimum Zone Ventilation Efficiency {dimensionless}
  Coincident;                             !- Sizing Option

OS:ZoneHVAC:EquipmentList,
  {30014c8d-7cf7-4f1b-924b-19d829bcd215}, !- Handle
  Zone HVAC Equipment List 1,             !- Name
  {98eb34b2-8a15-426d-8fc1-1fdb358775b3}, !- Thermal Zone
  ,                                       !- Load Distribution Scheme
  {613e9ca0-5051-4c92-8a1f-0d3a7010ec94}, !- Zone Equipment 1
  1,                                      !- Zone Equipment Cooling Sequence 1
  1,                                      !- Zone Equipment Heating or No-Load Sequence 1
  {7926f0db-2644-4798-b210-e800d2a30c89}, !- Zone Equipment Sequential Cooling Fraction Schedule Name 1
  {ce157aae-dc6a-4746-87b4-4e5d6d832dc7}; !- Zone Equipment Sequential Heating Fraction Schedule Name 1

OS:AdditionalProperties,
  {404f090b-3f5d-4262-b827-8d0c750f9c96}, !- Handle
  {98eb34b2-8a15-426d-8fc1-1fdb358775b3}, !- Object Name
  ObjectType,                             !- Feature Name 1
  String,                                 !- Feature Data Type 1
  conditioned space;                      !- Feature Value 1

OS:Space,
  {6963a18f-c92e-46cb-92fc-0c373d0653fb}, !- Handle
  conditioned space 1,                    !- Name
  ,                                       !- Space Type Name
  ,                                       !- Default Construction Set Name
  ,                                       !- Default Schedule Set Name
  ,                                       !- Direction of Relative North {deg}
  ,                                       !- X Origin {m}
  ,                                       !- Y Origin {m}
  ,                                       !- Z Origin {m}
  ,                                       !- Building Story Name
  {98eb34b2-8a15-426d-8fc1-1fdb358775b3}, !- Thermal Zone Name
  ,                                       !- Part of Total Floor Area
  ,                                       !- Design Specification Outdoor Air Object Name
  ,                                       !- Building Unit Name
  475.79381486208;                        !- Volume {m3}

OS:Schedule:Ruleset,
  {11b5a88e-6425-44c7-bd17-6ffa067c9587}, !- Handle
  heating setpoint,                       !- Name
  {1ae39a87-c7da-4756-9989-6450751f139c}, !- Schedule Type Limits Name
  {78a0e2f3-905e-40c6-8413-1c4c71b172bb}; !- Default Day Schedule Name

OS:Schedule:Day,
  {78a0e2f3-905e-40c6-8413-1c4c71b172bb}, !- Handle
  heating setpoint default day,           !- Name
  {1ae39a87-c7da-4756-9989-6450751f139c}, !- Schedule Type Limits Name
  ,                                       !- Interpolate to Timestep
  24,                                     !- Hour 1
  0,                                      !- Minute 1
  0;                                      !- Value Until Time 1

OS:Schedule:Rule,
  {be0b1030-c557-4e82-b35e-842cb522d9cd}, !- Handle
  heating setpoint allday rule,           !- Name
  {11b5a88e-6425-44c7-bd17-6ffa067c9587}, !- Schedule Ruleset Name
  0,                                      !- Rule Order
  {b176de1d-9a44-475b-baed-7506855b95d1}, !- Day Schedule Name
  Yes,                                    !- Apply Sunday
  Yes,                                    !- Apply Monday
  Yes,                                    !- Apply Tuesday
  Yes,                                    !- Apply Wednesday
  Yes,                                    !- Apply Thursday
  Yes,                                    !- Apply Friday
  Yes,                                    !- Apply Saturday
  DateRange,                              !- Date Specification Type
  1,                                      !- Start Month
  1,                                      !- Start Day
  12,                                     !- End Month
  31;                                     !- End Day

OS:Schedule:Day,
  {b176de1d-9a44-475b-baed-7506855b95d1}, !- Handle
  heating setpoint day,                   !- Name
  {1ae39a87-c7da-4756-9989-6450751f139c}, !- Schedule Type Limits Name
  ,                                       !- Interpolate to Timestep
  24,                                     !- Hour 1
  0,                                      !- Minute 1
  20;                                     !- Value Until Time 1

OS:Schedule:Ruleset,
  {0a67bf22-145d-477f-b79b-1e496606ea5d}, !- Handle
  cooling setpoint,                       !- Name
  {1ae39a87-c7da-4756-9989-6450751f139c}, !- Schedule Type Limits Name
  {5f1b7390-3e8d-4f53-a814-b9ff21dda419}; !- Default Day Schedule Name

OS:Schedule:Day,
  {5f1b7390-3e8d-4f53-a814-b9ff21dda419}, !- Handle
  cooling setpoint default day,           !- Name
  {1ae39a87-c7da-4756-9989-6450751f139c}, !- Schedule Type Limits Name
  ,                                       !- Interpolate to Timestep
  24,                                     !- Hour 1
  0,                                      !- Minute 1
  0;                                      !- Value Until Time 1

OS:Schedule:Rule,
  {353fcfef-5cd6-48fd-bfea-7a3ccd4d22d1}, !- Handle
  cooling setpoint allday rule,           !- Name
  {0a67bf22-145d-477f-b79b-1e496606ea5d}, !- Schedule Ruleset Name
  0,                                      !- Rule Order
  {1592bfbe-47a6-4cf4-a699-d970baaad65a}, !- Day Schedule Name
  Yes,                                    !- Apply Sunday
  Yes,                                    !- Apply Monday
  Yes,                                    !- Apply Tuesday
  Yes,                                    !- Apply Wednesday
  Yes,                                    !- Apply Thursday
  Yes,                                    !- Apply Friday
  Yes,                                    !- Apply Saturday
  DateRange,                              !- Date Specification Type
  1,                                      !- Start Month
  1,                                      !- Start Day
  12,                                     !- End Month
  31;                                     !- End Day

OS:Schedule:Day,
  {1592bfbe-47a6-4cf4-a699-d970baaad65a}, !- Handle
  cooling setpoint day,                   !- Name
  {1ae39a87-c7da-4756-9989-6450751f139c}, !- Schedule Type Limits Name
  ,                                       !- Interpolate to Timestep
  24,                                     !- Hour 1
  0,                                      !- Minute 1
  25.5555555555556;                       !- Value Until Time 1

OS:ThermostatSetpoint:DualSetpoint,
  {abc80133-ed27-4739-bd7a-051b315cc9b2}, !- Handle
  conditioned space temperature setpoint, !- Name
  {11b5a88e-6425-44c7-bd17-6ffa067c9587}, !- Heating Setpoint Temperature Schedule Name
  {0a67bf22-145d-477f-b79b-1e496606ea5d}, !- Cooling Setpoint Temperature Schedule Name
  0;                                      !- Temperature Difference Between Cutout And Setpoint {deltaC}

OS:ScheduleTypeLimits,
  {1ae39a87-c7da-4756-9989-6450751f139c}, !- Handle
  Temperature,                            !- Name
  ,                                       !- Lower Limit Value
  ,                                       !- Upper Limit Value
  Continuous,                             !- Numeric Type
  Temperature;                            !- Unit Type

OS:Surface,
  {939c52df-6658-44f9-b4ca-d90bcd6f1358}, !- Handle
  Roof1,                                  !- Name
  RoofCeiling,                            !- Surface Type
  {9d96fe27-068d-4d3a-abb9-a781440ac1ae}, !- Construction Name
  {6963a18f-c92e-46cb-92fc-0c373d0653fb}, !- Space Name
  Outdoors,                               !- Outside Boundary Condition
  ,                                       !- Outside Boundary Condition Object
  SunExposed,                             !- Sun Exposure
  WindExposed,                            !- Wind Exposure
  ,                                       !- View Factor to Ground
  ,                                       !- Number of Vertices
  -5.95628646053898, 5.95628646053898, 2.4384, !- X,Y,Z Vertex 1 {m}
  -5.95628646053898, -5.95628646053898, 2.4384, !- X,Y,Z Vertex 2 {m}
  5.95628646053898, -5.95628646053898, 2.4384, !- X,Y,Z Vertex 3 {m}
  5.95628646053898, 5.95628646053898, 2.4384; !- X,Y,Z Vertex 4 {m}

OS:AdditionalProperties,
  {ce0380c4-180a-4d9b-a1ae-5bfc134e39e4}, !- Handle
  {939c52df-6658-44f9-b4ca-d90bcd6f1358}, !- Object Name
  Length,                                 !- Feature Name 1
  Double,                                 !- Feature Data Type 1
  39.083244491725608,                     !- Feature Value 1
  Width,                                  !- Feature Name 2
  Double,                                 !- Feature Data Type 2
  39.083244491725608,                     !- Feature Value 2
  Azimuth,                                !- Feature Name 3
  Integer,                                !- Feature Data Type 3
  0,                                      !- Feature Value 3
  Tilt,                                   !- Feature Name 4
  Double,                                 !- Feature Data Type 4
  0,                                      !- Feature Value 4
  SurfaceType,                            !- Feature Name 5
  String,                                 !- Feature Data Type 5
  Roof;                                   !- Feature Value 5

OS:Material,
  {41a5df1a-0c43-4ccf-a293-62d8d65af04e}, !- Handle
  asphalt or fiberglass shingles,         !- Name
  Rough,                                  !- Roughness
  0.00635,                                !- Thickness {m}
  0.162714,                               !- Conductivity {W/m-K}
  1121.4,                                 !- Density {kg/m3}
  1465.45,                                !- Specific Heat {J/kg-K}
  0.9,                                    !- Thermal Absorptance
  0.85,                                   !- Solar Absorptance
  0.85;                                   !- Visible Absorptance

OS:Material,
  {2e11a8b0-9760-4da1-8284-5be070697e1e}, !- Handle
  roof stud and cavity,                   !- Name
  Rough,                                  !- Roughness
  0.0889,                                 !- Thickness {m}
  0.491900632004487,                      !- Conductivity {W/m-K}
  50.32683,                               !- Density {kg/m3}
  1063.80987585548,                       !- Specific Heat {J/kg-K}
  0.9,                                    !- Thermal Absorptance
  0.7,                                    !- Solar Absorptance
  0.7;                                    !- Visible Absorptance

OS:Material,
  {da3358d7-c3d4-4ec2-b639-a5d5a60e363a}, !- Handle
  gypsum board,                           !- Name
  Rough,                                  !- Roughness
  0.00254,                                !- Thickness {m}
  0.1602906,                              !- Conductivity {W/m-K}
  801,                                    !- Density {kg/m3}
  837.4,                                  !- Specific Heat {J/kg-K}
  0.9,                                    !- Thermal Absorptance
  0.6,                                    !- Solar Absorptance
  0.6;                                    !- Visible Absorptance

OS:Construction,
  {9d96fe27-068d-4d3a-abb9-a781440ac1ae}, !- Handle
  Roof1 construction,                     !- Name
  ,                                       !- Surface Rendering Name
  {41a5df1a-0c43-4ccf-a293-62d8d65af04e}, !- Layer 1
  {2e11a8b0-9760-4da1-8284-5be070697e1e}, !- Layer 2
  {da3358d7-c3d4-4ec2-b639-a5d5a60e363a}; !- Layer 3

OS:Surface,
  {0fd3a802-b812-4991-a432-55ab2d5fe771}, !- Handle
  Wall1,                                  !- Name
  Wall,                                   !- Surface Type
  {74b01c57-aa73-471c-8093-4f584a3850a1}, !- Construction Name
  {6963a18f-c92e-46cb-92fc-0c373d0653fb}, !- Space Name
  Outdoors,                               !- Outside Boundary Condition
  ,                                       !- Outside Boundary Condition Object
  SunExposed,                             !- Sun Exposure
  WindExposed,                            !- Wind Exposure
  ,                                       !- View Factor to Ground
  ,                                       !- Number of Vertices
  -29.479875, 30.4089054, 0,              !- X,Y,Z Vertex 1 {m}
  -29.479875, 30.4089054, 4.8768,         !- X,Y,Z Vertex 2 {m}
  -21.055965, 30.4089054, 4.8768,         !- X,Y,Z Vertex 3 {m}
  -21.055965, 30.4089054, 0;              !- X,Y,Z Vertex 4 {m}

OS:AdditionalProperties,
  {3c2fdef8-09c4-41fa-a57f-e89dd9208f8b}, !- Handle
  {0fd3a802-b812-4991-a432-55ab2d5fe771}, !- Object Name
  Length,                                 !- Feature Name 1
  Double,                                 !- Feature Data Type 1
  27.637499999999999,                     !- Feature Value 1
  Azimuth,                                !- Feature Name 2
  Integer,                                !- Feature Data Type 2
  0,                                      !- Feature Value 2
  Tilt,                                   !- Feature Name 3
  Double,                                 !- Feature Data Type 3
  90,                                     !- Feature Value 3
  SurfaceType,                            !- Feature Name 4
  String,                                 !- Feature Data Type 4
  Wall;                                   !- Feature Value 4

OS:Material,
  {52864910-9738-48ac-92ba-6c0d7b20c936}, !- Handle
  wood siding,                            !- Name
  Rough,                                  !- Roughness
  0.0254,                                 !- Thickness {m}
  0.1024175,                              !- Conductivity {W/m-K}
  544.68,                                 !- Density {kg/m3}
  1172.36,                                !- Specific Heat {J/kg-K}
  0.9,                                    !- Thermal Absorptance
  0.7,                                    !- Solar Absorptance
  0.7;                                    !- Visible Absorptance

OS:Material,
  {4d1736d1-e737-4efb-a187-501f725c7b8c}, !- Handle
  osb sheathing 0.5 in.,                  !- Name
  Rough,                                  !- Roughness
  0.0127,                                 !- Thickness {m}
  0.1154577,                              !- Conductivity {W/m-K}
  512.64,                                 !- Density {kg/m3}
  1214.23,                                !- Specific Heat {J/kg-K}
  0.9,                                    !- Thermal Absorptance
  0.7,                                    !- Solar Absorptance
  0.7;                                    !- Visible Absorptance

OS:Material,
  {910c04c2-2d2a-4849-9f36-f9978ad7d726}, !- Handle
  wall stud and cavity,                   !- Name
  Rough,                                  !- Roughness
  0.1397,                                 !- Thickness {m}
  0.0929021674204099,                     !- Conductivity {W/m-K}
  139.0536,                               !- Density {kg/m3}
  1170.23755760369,                       !- Specific Heat {J/kg-K}
  0.9,                                    !- Thermal Absorptance
  0.7,                                    !- Solar Absorptance
  0.7;                                    !- Visible Absorptance

OS:Material,
  {9400ba69-3fa1-4f06-827a-ae5fc9ce810f}, !- Handle
  gypsum board 1,                         !- Name
  Rough,                                  !- Roughness
  0.0127,                                 !- Thickness {m}
  0.1602906,                              !- Conductivity {W/m-K}
  801,                                    !- Density {kg/m3}
  837.4,                                  !- Specific Heat {J/kg-K}
  0.9,                                    !- Thermal Absorptance
  0.6,                                    !- Solar Absorptance
  0.6;                                    !- Visible Absorptance

OS:Construction,
  {74b01c57-aa73-471c-8093-4f584a3850a1}, !- Handle
  Wall1 construction,                     !- Name
  ,                                       !- Surface Rendering Name
  {52864910-9738-48ac-92ba-6c0d7b20c936}, !- Layer 1
  {4d1736d1-e737-4efb-a187-501f725c7b8c}, !- Layer 2
  {910c04c2-2d2a-4849-9f36-f9978ad7d726}, !- Layer 3
  {9400ba69-3fa1-4f06-827a-ae5fc9ce810f}; !- Layer 4

OS:Surface,
  {6ef475c8-8105-40de-8bac-e03cdaeac6f4}, !- Handle
  Wall2,                                  !- Name
  Wall,                                   !- Surface Type
  {6958d3aa-5159-4d7c-b6f1-466e12713ce4}, !- Construction Name
  {6963a18f-c92e-46cb-92fc-0c373d0653fb}, !- Space Name
  Outdoors,                               !- Outside Boundary Condition
  ,                                       !- Outside Boundary Condition Object
  SunExposed,                             !- Sun Exposure
  WindExposed,                            !- Wind Exposure
  ,                                       !- View Factor to Ground
  ,                                       !- Number of Vertices
  30.4089054, -26.1969504, 0,             !- X,Y,Z Vertex 1 {m}
  30.4089054, -26.1969504, 4.8768,        !- X,Y,Z Vertex 2 {m}
  30.4089054, -30.4089054, 4.8768,        !- X,Y,Z Vertex 3 {m}
  30.4089054, -30.4089054, 0;             !- X,Y,Z Vertex 4 {m}

OS:AdditionalProperties,
  {9ff77a21-f219-4511-9d3f-089c68a152b2}, !- Handle
  {6ef475c8-8105-40de-8bac-e03cdaeac6f4}, !- Object Name
  Length,                                 !- Feature Name 1
  Double,                                 !- Feature Data Type 1
  13.81875,                               !- Feature Value 1
  Azimuth,                                !- Feature Name 2