
OS:Version,
  {ce7f9d55-17cb-4054-abfe-a2b60fa2c64f}, !- Handle
  3.9.0;                                  !- Version Identifier

OS:SimulationControl,
  {8b18ec20-c9d0-4678-b66e-b44af18f3e58}, !- Handle
  ,                                       !- Do Zone Sizing Calculation
  ,                                       !- Do System Sizing Calculation
  ,                                       !- Do Plant Sizing Calculation
  No;                                     !- Run Simulation for Sizing Periods

OS:Timestep,
  {5e1107a3-6e47-4278-b276-696da683efc3}, !- Handle
  1;                                      !- Number of Timesteps per Hour

OS:ShadowCalculation,
  {d0f46cad-c423-4f17-954b-fd120f759853}, !- Handle
  PolygonClipping,                        !- Shading Calculation Method
  ,                                       !- Shading Calculation Update Frequency Method
  20,                                     !- Shading Calculation Update Frequency
  200,                                    !- Maximum Figures in Shadow Overlap Calculations
  ,                                       !- Polygon Clipping Algorithm
  512,                                    !- Pixel Counting Resolution
  ,                                       !- Sky Diffuse Modeling Algorithm
  No,                                     !- Output External Shading Calculation Results
  No,                                     !- Disable Self-Shading Within Shading Zone Groups
  No;                                     !- Disable Self-Shading From Shading Zone Groups to Other Zones

OS:SurfaceConvectionAlgorithm:Outside,
  {64401f3b-74ec-42f5-a704-7e015b2ad5cd}, !- Handle
  DOE-2;                                  !- Algorithm

OS:SurfaceConvectionAlgorithm:Inside,
  {8e1d54c2-8f87-4574-b36c-7a0e5880d198}, !- Handle
  TARP;                                   !- Algorithm

OS:ZoneCapacitanceMultiplier:ResearchSpecial,
  {6d5e3365-a297-4443-87c2-acef510d58b9}, !- Handle
  7,                                      !- Temperature Capacity Multiplier
  15,                                     !- Humidity Capacity Multiplier
  ;                                       !- Carbon Dioxide Capacity Multiplier

OS:ConvergenceLimits,
  {efc9dc46-31ba-46c7-a4d1-1b3facec063b}, !- Handle
  0;                                      !- Minimum System Timestep {minutes}

OS:RunPeriod,
  {f09ea21d-424e-4d3b-b6e7-d713e29df688}, !- Handle
  Run Period 1,                           !- Name
  1,                                      !- Begin Month
  1,                                      !- Begin Day of Month
  12,                                     !- End Month
  31,                                     !- End Day of Month
  ,                                       !- Use Weather File Holidays and Special Days
  ,                                       !- Use Weather File Daylight Saving Period
  ,                                       !- Apply Weekend Holiday Rule
  ,                                       !- Use Weather File Rain Indicators
  ,                                       !- Use Weather File Snow Indicators
  ;                                       !- Number of Times Runperiod to be Repeated

OS:PerformancePrecisionTradeoffs,
  {96a2d984-4808-4ca1-bfb2-ebd8f4fd29c7}, !- Handle
  ,                                       !- Use Coil Direct Solutions
  CarrollMRT;                             !- Zone Radiant Exchange Algorithm

OS:WeatherFile,
  {6ac7e098-e01a-4e26-a658-e1f12eaf8777}, !- Handle
  Buffalo Niagara Intl Ap,                !- City
  NY,                                     !- State Province Region
  USA,                                    !- Country
  TMY3,                                   !- Data Source
  725280,                                 !- WMO Number
  42.93,                                  !- Latitude {deg}
  -78.73,                                 !- Longitude {deg}
  -5,                                     !- Time Zone {hr}
  215,                                    !- Elevation {m}
  /Users/nmoore/github/urbanopt-example-geojson-project/example_project/weather/USA_NY_Buffalo-Greater.Buffalo.Intl.AP.725280_TMY3.epw, !- Url
  6B50E0FF,                               !- Checksum
  ,                                       !- Start Date Actual Year
  Sunday;                                 !- Start Day of Week

OS:YearDescription,
  {e777ee5b-b075-4a72-b5d6-b6c54cb5fdd8}, !- Handle
  2007,                                   !- Calendar Year
  ,                                       !- Day of Week for Start Day
  ;                                       !- Is Leap Year

OS:Site,
  {b7397469-603e-4e97-ba3d-c6a86a6c9d96}, !- Handle
  Buffalo Niagara Intl Ap_NY,             !- Name
  42.93,                                  !- Latitude {deg}
  -78.73,                                 !- Longitude {deg}
  -5,                                     !- Time Zone {hr}
  215,                                    !- Elevation {m}
  Suburbs,                                !- Terrain
  Yes;                                    !- Keep Site Location Information

OS:RunPeriodControl:DaylightSavingTime,
  {960a9e3f-806b-4691-976f-75f387acce00}, !- Handle
  Mar 12,                                 !- Start Date
  Nov 5;                                  !- End Date

OS:Site:GroundTemperature:Shallow,
  {390ec3e1-c6ef-4c21-b4ff-9c245fbdbf68}, !- Handle
  4.30207395723828,                       !- January Surface Ground Temperature {C}
  2.29327249652502,                       !- February Surface Ground Temperature {C}
  2.13240047156047,                       !- March Surface Ground Temperature {C}
  3.08567940719286,                       !- April Surface Ground Temperature {C}
  6.91256312497526,                       !- May Surface Ground Temperature {C}
  10.7216195949507,                       !- June Surface Ground Temperature {C}
  14.0238679822574,                       !- July Surface Ground Temperature {C}
  16.1157611184724,                       !- August Surface Ground Temperature {C}
  16.2934789303462,                       !- September Surface Ground Temperature {C}
  14.5920754632847,                       !- October Surface Ground Temperature {C}
  11.374036348653,                        !- November Surface Ground Temperature {C}
  7.68182621661674;                       !- December Surface Ground Temperature {C}

OS:ThermalZone,
  {aa08779a-834e-4a38-aeae-e25e6d881660}, !- Handle
  conditioned space,                      !- Name
  1,                                      !- Multiplier
  ,                                       !- Ceiling Height {m}
  346.03186535424,                        !- Volume {m3}
  ,                                       !- Floor Area {m2}
  ,                                       !- Zone Inside Convection Algorithm
  ,                                       !- Zone Outside Convection Algorithm
  ,                                       !- Zone Conditioning Equipment List Name
  {d94a2056-0a00-46cd-9d3c-ade3803cceef}, !- Zone Air Inlet Port List
  {6f9d992f-8a48-40af-85be-8f420b1d23c8}, !- Zone Air Exhaust Port List
  {f7cfe3fa-e287-4ba0-8232-4aad0df141a7}, !- Zone Air Node Name
  {707ce8f0-b745-4f2a-bb03-3cfc7116fa8e}, !- Zone Return Air Port List
  ,                                       !- Primary Daylighting Control Name
  ,                                       !- Fraction of Zone Controlled by Primary Daylighting Control
  ,                                       !- Secondary Daylighting Control Name
  ,                                       !- Fraction of Zone Controlled by Secondary Daylighting Control
  ,                                       !- Illuminance Map Name
  ,                                       !- Group Rendering Name
  {566d0c8e-e0c9-47e2-913a-eb0b0e0e01ea}, !- Thermostat Name
  No;                                     !- Use Ideal Air Loads

OS:Node,
  {288844e3-4614-47b2-afc6-6531c9de6abe}, !- Handle
  Node 1,                                 !- Name
  {f7cfe3fa-e287-4ba0-8232-4aad0df141a7}, !- Inlet Port
  ;                                       !- Outlet Port

OS:Connection,
  {f7cfe3fa-e287-4ba0-8232-4aad0df141a7}, !- Handle
  {aa08779a-834e-4a38-aeae-e25e6d881660}, !- Source Object
  11,                                     !- Outlet Port
  {288844e3-4614-47b2-afc6-6531c9de6abe}, !- Target Object
  2;                                      !- Inlet Port

OS:PortList,
  {d94a2056-0a00-46cd-9d3c-ade3803cceef}, !- Handle
  {aa08779a-834e-4a38-aeae-e25e6d881660}, !- HVAC Component
  {626594f0-9377-446d-8ddd-ef6580820712}; !- Port 1

OS:PortList,
  {6f9d992f-8a48-40af-85be-8f420b1d23c8}, !- Handle
  {aa08779a-834e-4a38-aeae-e25e6d881660}; !- HVAC Component

OS:PortList,
  {707ce8f0-b745-4f2a-bb03-3cfc7116fa8e}, !- Handle
  {aa08779a-834e-4a38-aeae-e25e6d881660}, !- HVAC Component
  {ff05a519-9316-446c-bdc9-5ed658060b58}; !- Port 1

OS:Sizing:Zone,
  {86669c87-fef8-4aae-b826-4f50a0a7f282}, !- Handle
  {aa08779a-834e-4a38-aeae-e25e6d881660}, !- Zone or ZoneList Name
  SupplyAirTemperature,                   !- Zone Cooling Design Supply Air Temperature Input Method
  14,                                     !- Zone Cooling Design Supply Air Temperature {C}
  11.11,                                  !- Zone Cooling Design Supply Air Temperature Difference {deltaC}
  SupplyAirTemperature,                   !- Zone Heating Design Supply Air Temperature Input Method
  40,                                     !- Zone Heating Design Supply Air Temperature {C}
  11.11,                                  !- Zone Heating Design Supply Air Temperature Difference {deltaC}
  0.0085,                                 !- Zone Cooling Design Supply Air Humidity Ratio {kg-H2O/kg-air}
  0.008,                                  !- Zone Heating Design Supply Air Humidity Ratio {kg-H2O/kg-air}
  ,                                       !- Zone Heating Sizing Factor
  ,                                       !- Zone Cooling Sizing Factor
  DesignDay,                              !- Cooling Design Air Flow Method
  ,                                       !- Cooling Design Air Flow Rate {m3/s}
  ,                                       !- Cooling Minimum Air Flow per Zone Floor Area {m3/s-m2}
  ,                                       !- Cooling Minimum Air Flow {m3/s}
  ,                                       !- Cooling Minimum Air Flow Fraction
  DesignDay,                              !- Heating Design Air Flow Method
  ,                                       !- Heating Design Air Flow Rate {m3/s}
  ,                                       !- Heating Maximum Air Flow per Zone Floor Area {m3/s-m2}
  ,                                       !- Heating Maximum Air Flow {m3/s}
  ,                                       !- Heating Maximum Air Flow Fraction
  No,                                     !- Account for Dedicated Outdoor Air System
  NeutralSupplyAir,                       !- Dedicated Outdoor Air System Control Strategy
  autosize,                               !- Dedicated Outdoor Air Low Setpoint Temperature for Design {C}
  autosize,                               !- Dedicated Outdoor Air High Setpoint Temperature for Design {C}
  Sensible Load Only No Latent Load,      !- Zone Load Sizing Method
  HumidityRatioDifference,                !- Zone Latent Cooling Design Supply Air Humidity Ratio Input Method
  ,                                       !- Zone Dehumidification Design Supply Air Humidity Ratio {kgWater/kgDryAir}
  0.005,                                  !- Zone Cooling Design Supply Air Humidity Ratio Difference {kgWater/kgDryAir}
  HumidityRatioDifference,                !- Zone Latent Heating Design Supply Air Humidity Ratio Input Method
  ,                                       !- Zone Humidification Design Supply Air Humidity Ratio {kgWater/kgDryAir}
  0.005,                                  !- Zone Humidification Design Supply Air Humidity Ratio Difference {kgWater/kgDryAir}
  ,                                       !- Zone Humidistat Dehumidification Set Point Schedule Name
  ,                                       !- Zone Humidistat Humidification Set Point Schedule Name
  ,                                       !- Design Zone Air Distribution Effectiveness in Cooling Mode
  ,                                       !- Design Zone Air Distribution Effectiveness in Heating Mode
  ,                                       !- Design Zone Secondary Recirculation Fraction {dimensionless}
  ,                                       !- Design Minimum Zone Ventilation Efficiency {dimensionless}
  Coincident;                             !- Sizing Option

OS:ZoneHVAC:EquipmentList,
  {0c226fb1-c56e-44c8-a4cc-fab55faa5076}, !- Handle
  Zone HVAC Equipment List 1,             !- Name
  {aa08779a-834e-4a38-aeae-e25e6d881660}, !- Thermal Zone
  ,                                       !- Load Distribution Scheme
  {458ffeb8-1ed8-4a86-9654-31bec1c09ac4}, !- Zone Equipment 1
  1,                                      !- Zone Equipment Cooling Sequence 1
  1,                                      !- Zone Equipment Heating or No-Load Sequence 1
  {47bafae2-2667-41f3-aaa9-68f6a196cc51}, !- Zone Equipment Sequential Cooling Fraction Schedule Name 1
  {35b620ec-344f-455f-858e-33964d0fae39}; !- Zone Equipment Sequential Heating Fraction Schedule Name 1

OS:AdditionalProperties,
  {6150979b-ed5b-416d-8127-a16e29649a84}, !- Handle
  {aa08779a-834e-4a38-aeae-e25e6d881660}, !- Object Name
  ObjectType,                             !- Feature Name 1
  String,                                 !- Feature Data Type 1
  conditioned space;                      !- Feature Value 1

OS:Space,
  {bad5bea7-ed17-4b92-a82c-39045a1129d9}, !- Handle
  conditioned space 1,                    !- Name
  ,                                       !- Space Type Name
  ,                                       !- Default Construction Set Name
  ,                                       !- Default Schedule Set Name
  ,                                       !- Direction of Relative North {deg}
  ,                                       !- X Origin {m}
  ,                                       !- Y Origin {m}
  ,                                       !- Z Origin {m}
  ,                                       !- Building Story Name
  {aa08779a-834e-4a38-aeae-e25e6d881660}, !- Thermal Zone Name
  ,                                       !- Part of Total Floor Area
  ,                                       !- Design Specification Outdoor Air Object Name
  ,                                       !- Building Unit Name
  346.03186535424;                        !- Volume {m3}

OS:Schedule:Ruleset,
  {a8f2fbc8-82ed-4dd3-8092-a6fb79f27e00}, !- Handle
  heating setpoint,                       !- Name
  {1632cdce-bd07-4718-8eec-549d1c715732}, !- Schedule Type Limits Name
  {6eed9c58-e413-47c6-962e-dc5a1da600e4}; !- Default Day Schedule Name

OS:Schedule:Day,
  {6eed9c58-e413-47c6-962e-dc5a1da600e4}, !- Handle
  heating setpoint default day,           !- Name
  {1632cdce-bd07-4718-8eec-549d1c715732}, !- Schedule Type Limits Name
  ,                                       !- Interpolate to Timestep
  24,                                     !- Hour 1
  0,                                      !- Minute 1
  0;                                      !- Value Until Time 1

OS:Schedule:Rule,
  {48f6ac96-5741-4d22-95d4-964e8223904a}, !- Handle
  heating setpoint allday rule,           !- Name
  {a8f2fbc8-82ed-4dd3-8092-a6fb79f27e00}, !- Schedule Ruleset Name
  0,                                      !- Rule Order
  {7c70e8f8-97a8-4b1d-b758-8c254c6442ce}, !- Day Schedule Name
  Yes,                                    !- Apply Sunday
  Yes,                                    !- Apply Monday
  Yes,                                    !- Apply Tuesday
  Yes,                                    !- Apply Wednesday
  Yes,                                    !- Apply Thursday
  Yes,                                    !- Apply Friday
  Yes,                                    !- Apply Saturday
  DateRange,                              !- Date Specification Type
  1,                                      !- Start Month
  1,                                      !- Start Day
  12,                                     !- End Month
  31;                                     !- End Day

OS:Schedule:Day,
  {7c70e8f8-97a8-4b1d-b758-8c254c6442ce}, !- Handle
  heating setpoint day,                   !- Name
  {1632cdce-bd07-4718-8eec-549d1c715732}, !- Schedule Type Limits Name
  ,                                       !- Interpolate to Timestep
  24,                                     !- Hour 1
  0,                                      !- Minute 1
  20;                                     !- Value Until Time 1

OS:Schedule:Ruleset,
  {e809e13a-4a12-498f-84aa-947f644bf76e}, !- Handle
  cooling setpoint,                       !- Name
  {1632cdce-bd07-4718-8eec-549d1c715732}, !- Schedule Type Limits Name
  {736c331e-85be-445d-a56f-9dda4efb8460}; !- Default Day Schedule Name

OS:Schedule:Day,
  {736c331e-85be-445d-a56f-9dda4efb8460}, !- Handle
  cooling setpoint default day,           !- Name
  {1632cdce-bd07-4718-8eec-549d1c715732}, !- Schedule Type Limits Name
  ,                                       !- Interpolate to Timestep
  24,                                     !- Hour 1
  0,                                      !- Minute 1
  0;                                      !- Value Until Time 1

OS:Schedule:Rule,
  {0d2c674a-dbef-49fc-a5e7-e68e1521cd7e}, !- Handle
  cooling setpoint allday rule,           !- Name
  {e809e13a-4a12-498f-84aa-947f644bf76e}, !- Schedule Ruleset Name
  0,                                      !- Rule Order
  {b80f5dfc-4526-4b81-b802-b8ffc4b41ef7}, !- Day Schedule Name
  Yes,                                    !- Apply Sunday
  Yes,                                    !- Apply Monday
  Yes,                                    !- Apply Tuesday
  Yes,                                    !- Apply Wednesday
  Yes,                                    !- Apply Thursday
  Yes,                                    !- Apply Friday
  Yes,                                    !- Apply Saturday
  DateRange,                              !- Date Specification Type
  1,                                      !- Start Month
  1,                                      !- Start Day
  12,                                     !- End Month
  31;                                     !- End Day

OS:Schedule:Day,
  {b80f5dfc-4526-4b81-b802-b8ffc4b41ef7}, !- Handle
  cooling setpoint day,                   !- Name
  {1632cdce-bd07-4718-8eec-549d1c715732}, !- Schedule Type Limits Name
  ,                                       !- Interpolate to Timestep
  24,                                     !- Hour 1
  0,                                      !- Minute 1
  25.5555555555556;                       !- Value Until Time 1

OS:ThermostatSetpoint:DualSetpoint,
  {566d0c8e-e0c9-47e2-913a-eb0b0e0e01ea}, !- Handle
  conditioned space temperature setpoint, !- Name
  {a8f2fbc8-82ed-4dd3-8092-a6fb79f27e00}, !- Heating Setpoint Temperature Schedule Name
  {e809e13a-4a12-498f-84aa-947f644bf76e}, !- Cooling Setpoint Temperature Schedule Name
  0;                                      !- Temperature Difference Between Cutout And Setpoint {deltaC}

OS:ScheduleTypeLimits,
  {1632cdce-bd07-4718-8eec-549d1c715732}, !- Handle
  Temperature,                            !- Name
  ,                                       !- Lower Limit Value
  ,                                       !- Upper Limit Value
  Continuous,                             !- Numeric Type
  Temperature;                            !- Unit Type

OS:Surface,
  {c4a5dd2b-1c06-4958-8a0b-e5dad1cfc097}, !- Handle
  Roof1,                                  !- Name
  RoofCeiling,                            !- Surface Type
  {6110944e-5b8b-4b6a-801e-18d371e6f9cf}, !- Construction Name
  {9ce92e80-7a98-4d17-9e95-d3144a188994}, !- Space Name
  Outdoors,                               !- Outside Boundary Condition
  ,                                       !- Outside Boundary Condition Object
  SunExposed,                             !- Sun Exposure
  WindExposed,                            !- Wind Exposure
  ,                                       !- View Factor to Ground
  ,                                       !- Number of Vertices
  -25.0448166683368, 35.3267874683368, 2.4384, !- X,Y,Z Vertex 1 {m}
  -25.0448166683368, 27.3603626312597, 6.42161241853859, !- X,Y,Z Vertex 2 {m}
  -16.1380829316632, 27.3603626312596, 6.42161241853859, !- X,Y,Z Vertex 3 {m}
  -16.1380829316632, 35.3267874683368, 2.4384; !- X,Y,Z Vertex 4 {m}

OS:AdditionalProperties,
  {4cd1702a-27a4-4182-a403-096ad776f91f}, !- Handle
  {c4a5dd2b-1c06-4958-8a0b-e5dad1cfc097}, !- Object Name
  Length,                                 !- Feature Name 1
  Double,                                 !- Feature Data Type 1
  29.221567377538118,                     !- Feature Value 1
  Width,                                  !- Feature Name 2
  Double,                                 !- Feature Data Type 2
  29.221567377538118,                     !- Feature Value 2
  Azimuth,                                !- Feature Name 3
  Integer,                                !- Feature Data Type 3
  0,                                      !- Feature Value 3
  Tilt,                                   !- Feature Name 4
  Double,                                 !- Feature Data Type 4
  0.5,                                    !- Feature Value 4
  SurfaceType,                            !- Feature Name 5
  String,                                 !- Feature Data Type 5
  Roof;                                   !- Feature Value 5

OS:ThermalZone,
  {a635f30e-9da1-4fef-8443-c14875b9bbfb}, !- Handle
  attic - vented,                         !- Name
  1,                                      !- Multiplier
  ,                                       !- Ceiling Height {m}
  126.002877704413,                       !- Volume {m3}
  ,                                       !- Floor Area {m2}
  ,                                       !- Zone Inside Convection Algorithm
  ,                                       !- Zone Outside Convection Algorithm
  ,                                       !- Zone Conditioning Equipment List Name
  {0f603beb-cf05-422b-b0a9-26995d029f70}, !- Zone Air Inlet Port List
  {fc37ddce-86bc-4ca7-8617-ccba0d94d8dd}, !- Zone Air Exhaust Port List
  {dfd79d70-edb1-4d77-b0d5-5cefd20fd559}, !- Zone Air Node Name
  {15c9dc82-47d7-4f24-a3f0-dc78553a80f9}, !- Zone Return Air Port List
  ,                                       !- Primary Daylighting Control Name
  ,                                       !- Fraction of Zone Controlled by Primary Daylighting Control
  ,                                       !- Secondary Daylighting Control Name
  ,                                       !- Fraction of Zone Controlled by Secondary Daylighting Control
  ,                                       !- Illuminance Map Name
  ,                                       !- Group Rendering Name
  ,                                       !- Thermostat Name
  No;                                     !- Use Ideal Air Loads

OS:Node,
  {3fe1b5cc-a7a8-4bd8-a9e2-7699d9770833}, !- Handle
  Node 2,                                 !- Name
  {dfd79d70-edb1-4d77-b0d5-5cefd20fd559}, !- Inlet Port
  ;                                       !- Outlet Port

OS:Connection,
  {dfd79d70-edb1-4d77-b0d5-5cefd20fd559}, !- Handle
  {a635f30e-9da1-4fef-8443-c14875b9bbfb}, !- Source Object
  11,                                     !- Outlet Port
  {3fe1b5cc-a7a8-4bd8-a9e2-7699d9770833}, !- Target Object
  2;                                      !- Inlet Port

OS:PortList,
  {0f603beb-cf05-422b-b0a9-26995d029f70}, !- Handle
  {a635f30e-9da1-4fef-8443-c14875b9bbfb}; !- HVAC Component

OS:PortList,
  {fc37ddce-86bc-4ca7-8617-ccba0d94d8dd}, !- Handle
  {a635f30e-9da1-4fef-8443-c14875b9bbfb}; !- HVAC Component

OS:PortList,
  {15c9dc82-47d7-4f24-a3f0-dc78553a80f9}, !- Handle
  {a635f30e-9da1-4fef-8443-c14875b9bbfb}; !- HVAC Component

OS:Sizing:Zone,
  {3f16eb20-2f71-4900-84b1-ab29b7ae8efc}, !- Handle
  {a635f30e-9da1-4fef-8443-c14875b9bbfb}, !- Zone or ZoneList Name
  SupplyAirTemperature,                   !- Zone Cooling Design Supply Air Temperature Input Method
  14,                                     !- Zone Cooling Design Supply Air Temperature {C}
  11.11,                                  !- Zone Cooling Design Supply Air Temperature Difference {deltaC}
  SupplyAirTemperature,                   !- Zone Heating Design Supply Air Temperature Input Method
  40,                                     !- Zone Heating Design Supply Air Temperature {C}
  11.11,                                  !- Zone Heating Design Supply Air Temperature Difference {deltaC}
  0.0085,                                 !- Zone Cooling Design Supply Air Humidity Ratio {kg-H2O/kg-air}
  0.008,                                  !- Zone Heating Design Supply Air Humidity Ratio {kg-H2O/kg-air}
  ,                                       !- Zone Heating Sizing Factor
  ,                                       !- Zone Cooling Sizing Factor
  DesignDay,                              !- Cooling Design Air Flow Method
  ,                                       !- Cooling Design Air Flow Rate {m3/s}
  ,                                       !- Cooling Minimum Air Flow per Zone Floor Area {m3/s-m2}
  ,                                       !- Cooling Minimum Air Flow {m3/s}
  ,                                       !- Cooling Minimum Air Flow Fraction
  DesignDay,                              !- Heating Design Air Flow Method
  ,                                       !- Heating Design Air Flow Rate {m3/s}
  ,                                       !- Heating Maximum Air Flow per Zone Floor Area {m3/s-m2}
  ,                                       !- Heating Maximum Air Flow {m3/s}
  ,                                       !- Heating Maximum Air Flow Fraction
  No,                                     !- Account for Dedicated Outdoor Air System
  NeutralSupplyAir,                       !- Dedicated Outdoor Air System Control Strategy
  autosize,                               !- Dedicated Outdoor Air Low Setpoint Temperature for Design {C}
  autosize,                               !- Dedicated Outdoor Air High Setpoint Temperature for Design {C}
  Sensible Load Only No Latent Load,      !- Zone Load Sizing Method
  HumidityRatioDifference,                !- Zone Latent Cooling Design Supply Air Humidity Ratio Input Method
  ,                                       !- Zone Dehumidification Design Supply Air Humidity Ratio {kgWater/kgDryAir}
  0.005,                                  !- Zone Cooling Design Supply Air Humidity Ratio Difference {kgWater/kgDryAir}
  HumidityRatioDifference,                !- Zone Latent Heating Design Supply Air Humidity Ratio Input Method
  ,                                       !- Zone Humidification Design Supply Air Humidity Ratio {kgWater/kgDryAir}
  0.005,                                  !- Zone Humidification Design Supply Air Humidity Ratio Difference {kgWater/kgDryAir}
  ,                                       !- Zone Humidistat Dehumidification Set Point Schedule Name
  ,                                       !- Zone Humidistat Humidification Set Point Schedule Name
  ,                                       !- Design Zone Air Distribution Effectiveness in Cooling Mode
  ,                                       !- Design Zone Air Distribution Effectiveness in Heating Mode
  ,                                       !- Design Zone Secondary Recirculation Fraction {dimensionless}
  ,                                       !- Design Minimum Zone Ventilation Efficiency {dimensionless}
  Coincident;                             !- Sizing Option

OS:ZoneHVAC:EquipmentList,
  {34859554-a4e0-4433-86b6-7aaa0ff837a6}, !- Handle
  Zone HVAC Equipment List 2,             !- Name
  {a635f30e-9da1-4fef-8443-c14875b9bbfb}; !- Thermal Zone

OS:AdditionalProperties,
  {942eaf05-ca0f-4ced-b2f4-6c95f755b26b}, !- Handle
  {a635f30e-9da1-4fef-8443-c14875b9bbfb}, !- Object Name
  ObjectType,                             !- Feature Name 1
  String,                                 !- Feature Data Type 1
  attic - vented;                         !- Feature Value 1

OS:Space,
  {9ce92e80-7a98-4d17-9e95-d3144a188994}, !- Handle
  attic - vented 1,                       !- Name
  ,                                       !- Space Type Name
  ,                                       !- Default Construction Set Name
  ,                                       !- Default Schedule Set Name
  ,                                       !- Direction of Relative North {deg}
  ,                                       !- X Origin {m}
  ,                                       !- Y Origin {m}
  ,                                       !- Z Origin {m}
  ,                                       !- Building Story Name
  {a635f30e-9da1-4fef-8443-c14875b9bbfb}, !- Thermal Zone Name
  ,                                       !- Part of Total Floor Area
  ,                                       !- Design Specification Outdoor Air Object Name
  ,                                       !- Building Unit Name
  126.002877704413;                       !- Volume {m3}

OS:Material,
  {2d9256ab-525a-4d34-b328-db7e2c27f85e}, !- Handle
  asphalt or fiberglass shingles,         !- Name
  Rough,                                  !- Roughness
  0.00635,                                !- Thickness {m}
  0.162714,                               !- Conductivity {W/m-K}
  1121.4,                                 !- Density {kg/m3}
  1465.45,                                !- Specific Heat {J/kg-K}
  0.9,                                    !- Thermal Absorptance
  0.85,                                   !- Solar Absorptance