
OS:Version,
  {2a9ef0b1-adfc-468f-860d-48595c5d0829}, !- Handle
  3.10.0;                                 !- Version Identifier

OS:SimulationControl,
  {f4001f0e-50a7-4c83-8421-8a76956af074}, !- Handle
  ,                                       !- Do Zone Sizing Calculation
  ,                                       !- Do System Sizing Calculation
  ,                                       !- Do Plant Sizing Calculation
  No;                                     !- Run Simulation for Sizing Periods

OS:Timestep,
  {761d0a02-650c-4b74-a495-8155c5ffdad5}, !- Handle
  1;                                      !- Number of Timesteps per Hour

OS:ShadowCalculation,
  {3ead8425-8b07-46a7-8a82-842711101fe8}, !- Handle
  PolygonClipping,                        !- Shading Calculation Method
  ,                                       !- Shading Calculation Update Frequency Method
  20,                                     !- Shading Calculation Update Frequency
  200,                                    !- Maximum Figures in Shadow Overlap Calculations
  ,                                       !- Polygon Clipping Algorithm
  512,                                    !- Pixel Counting Resolution
  ,                                       !- Sky Diffuse Modeling Algorithm
  No,                                     !- Output External Shading Calculation Results
  No,                                     !- Disable Self-Shading Within Shading Zone Groups
  No;                                     !- Disable Self-Shading From Shading Zone Groups to Other Zones

OS:SurfaceConvectionAlgorithm:Outside,
  {281ce3fc-a60d-4376-b9bf-e5ef39a8d71e}, !- Handle
  DOE-2;                                  !- Algorithm

OS:SurfaceConvectionAlgorithm:Inside,
  {eb46e22d-3460-4894-b1b6-146b2c929bfe}, !- Handle
  TARP;                                   !- Algorithm

OS:ZoneCapacitanceMultiplier:ResearchSpecial,
  {bf902d1a-b532-44e2-a0a6-9edcc28c6fab}, !- Handle
  7,                                      !- Temperature Capacity Multiplier
  15,                                     !- Humidity Capacity Multiplier
  ;                                       !- Carbon Dioxide Capacity Multiplier

OS:ConvergenceLimits,
  {ac6ff310-e1ce-4c73-b2a6-4d9d4ab7eabb}, !- Handle
  0;                                      !- Minimum System Timestep {minutes}

OS:RunPeriod,
  {497e1c09-4542-47b9-a820-66479b475522}, !- Handle
  Run Period 1,                           !- Name
  1,                                      !- Begin Month
  1,                                      !- Begin Day of Month
  12,                                     !- End Month
  31,                                     !- End Day of Month
  ,                                       !- Use Weather File Holidays and Special Days
  ,                                       !- Use Weather File Daylight Saving Period
  ,                                       !- Apply Weekend Holiday Rule
  ,                                       !- Use Weather File Rain Indicators
  ,                                       !- Use Weather File Snow Indicators
  ;                                       !- Number of Times Runperiod to be Repeated

OS:PerformancePrecisionTradeoffs,
  {7cda9682-063b-4e26-8f7a-15585becfa0b}, !- Handle
  ,                                       !- Use Coil Direct Solutions
  CarrollMRT;                             !- Zone Radiant Exchange Algorithm

OS:WeatherFile,
  {fa95ac3f-7413-42ea-bb00-88f5fa760e9f}, !- Handle
  Buffalo Niagara Intl Ap,                !- City
  NY,                                     !- State Province Region
  USA,                                    !- Country
  TMY3,                                   !- Data Source
  725280,                                 !- WMO Number
  42.93,                                  !- Latitude {deg}
  -78.73,                                 !- Longitude {deg}
  -5,                                     !- Time Zone {hr}
  215,                                    !- Elevation {m}
  /Users/nmoore/github/urbanopt-example-geojson-project/example_project/weather/USA_NY_Buffalo-Greater.Buffalo.Intl.AP.725280_TMY3.epw, !- Url
  6B50E0FF,                               !- Checksum
  ,                                       !- Start Date Actual Year
  Sunday;                                 !- Start Day of Week

OS:YearDescription,
  {d3ab62a1-3eb6-406a-a0b3-392e9db3ee49}, !- Handle
  2007,                                   !- Calendar Year
  ,                                       !- Day of Week for Start Day
  ;                                       !- Is Leap Year

OS:Site,
  {9bf3ddab-b910-40bd-95cb-83703b415e32}, !- Handle
  Buffalo Niagara Intl Ap_NY,             !- Name
  42.93,                                  !- Latitude {deg}
  -78.73,                                 !- Longitude {deg}
  -5,                                     !- Time Zone {hr}
  215,                                    !- Elevation {m}
  Suburbs,                                !- Terrain
  Yes;                                    !- Keep Site Location Information

OS:RunPeriodControl:DaylightSavingTime,
  {bee25f2a-fd43-46ad-89d8-159d8bca24cf}, !- Handle
  Mar 12,                                 !- Start Date
  Nov 5;                                  !- End Date

OS:Site:GroundTemperature:Shallow,
  {8e695aa0-cf94-4332-ba1e-79db996002c4}, !- Handle
  4.30207395723828,                       !- January Surface Ground Temperature {C}
  2.29327249652502,                       !- February Surface Ground Temperature {C}
  2.13240047156047,                       !- March Surface Ground Temperature {C}
  3.08567940719286,                       !- April Surface Ground Temperature {C}
  6.91256312497526,                       !- May Surface Ground Temperature {C}
  10.7216195949507,                       !- June Surface Ground Temperature {C}
  14.0238679822574,                       !- July Surface Ground Temperature {C}
  16.1157611184724,                       !- August Surface Ground Temperature {C}
  16.2934789303462,                       !- September Surface Ground Temperature {C}
  14.5920754632847,                       !- October Surface Ground Temperature {C}
  11.374036348653,                        !- November Surface Ground Temperature {C}
  7.68182621661674;                       !- December Surface Ground Temperature {C}

OS:ThermalZone,
  {d510cb53-142b-4fe6-aea9-75a956ca6cea}, !- Handle
  conditioned space,                      !- Name
  1,                                      !- Multiplier
  ,                                       !- Ceiling Height {m}
  346.03186535424,                        !- Volume {m3}
  ,                                       !- Floor Area {m2}
  ,                                       !- Zone Inside Convection Algorithm
  ,                                       !- Zone Outside Convection Algorithm
  ,                                       !- Zone Conditioning Equipment List Name
  {e12ad0bc-8085-4c3b-b59c-2cd90ba04624}, !- Zone Air Inlet Port List
  {53fe868d-11b5-4795-83e2-27747a76b795}, !- Zone Air Exhaust Port List
  {4736faea-8267-413f-903d-6b36e82ce3f5}, !- Zone Air Node Name
  {0f090eb2-0de3-4f97-829b-0f23093d3cc5}, !- Zone Return Air Port List
  ,                                       !- Primary Daylighting Control Name
  ,                                       !- Fraction of Zone Controlled by Primary Daylighting Control
  ,                                       !- Secondary Daylighting Control Name
  ,                                       !- Fraction of Zone Controlled by Secondary Daylighting Control
  ,                                       !- Illuminance Map Name
  ,                                       !- Group Rendering Name
  {017c9594-4c87-4dec-935e-e96a0d73dcfd}, !- Thermostat Name
  No;                                     !- Use Ideal Air Loads

OS:Node,
  {34e0c0e2-7160-481b-a1e3-06d3b6cbe11e}, !- Handle
  Node 1,                                 !- Name
  {4736faea-8267-413f-903d-6b36e82ce3f5}, !- Inlet Port
  ;                                       !- Outlet Port

OS:Connection,
  {4736faea-8267-413f-903d-6b36e82ce3f5}, !- Handle
  {d510cb53-142b-4fe6-aea9-75a956ca6cea}, !- Source Object
  11,                                     !- Outlet Port
  {34e0c0e2-7160-481b-a1e3-06d3b6cbe11e}, !- Target Object
  2;                                      !- Inlet Port

OS:PortList,
  {e12ad0bc-8085-4c3b-b59c-2cd90ba04624}, !- Handle
  {d510cb53-142b-4fe6-aea9-75a956ca6cea}, !- HVAC Component
  {31e7ab98-144b-4a33-959c-8698e6cd6c1d}; !- Port 1

OS:PortList,
  {53fe868d-11b5-4795-83e2-27747a76b795}, !- Handle
  {d510cb53-142b-4fe6-aea9-75a956ca6cea}; !- HVAC Component

OS:PortList,
  {0f090eb2-0de3-4f97-829b-0f23093d3cc5}, !- Handle
  {d510cb53-142b-4fe6-aea9-75a956ca6cea}, !- HVAC Component
  {63a0de2e-1eff-4435-acec-6400ecc162f7}; !- Port 1

OS:Sizing:Zone,
  {92c15f31-4cc7-4306-8300-559556df999d}, !- Handle
  {d510cb53-142b-4fe6-aea9-75a956ca6cea}, !- Zone or ZoneList Name
  SupplyAirTemperature,                   !- Zone Cooling Design Supply Air Temperature Input Method
  14,                                     !- Zone Cooling Design Supply Air Temperature {C}
  11.11,                                  !- Zone Cooling Design Supply Air Temperature Difference {deltaC}
  SupplyAirTemperature,                   !- Zone Heating Design Supply Air Temperature Input Method
  40,                                     !- Zone Heating Design Supply Air Temperature {C}
  11.11,                                  !- Zone Heating Design Supply Air Temperature Difference {deltaC}
  0.0085,                                 !- Zone Cooling Design Supply Air Humidity Ratio {kg-H2O/kg-air}
  0.008,                                  !- Zone Heating Design Supply Air Humidity Ratio {kg-H2O/kg-air}
  ,                                       !- Zone Heating Sizing Factor
  ,                                       !- Zone Cooling Sizing Factor
  DesignDay,                              !- Cooling Design Air Flow Method
  ,                                       !- Cooling Design Air Flow Rate {m3/s}
  ,                                       !- Cooling Minimum Air Flow per Zone Floor Area {m3/s-m2}
  ,                                       !- Cooling Minimum Air Flow {m3/s}
  ,                                       !- Cooling Minimum Air Flow Fraction
  DesignDay,                              !- Heating Design Air Flow Method
  ,                                       !- Heating Design Air Flow Rate {m3/s}
  ,                                       !- Heating Maximum Air Flow per Zone Floor Area {m3/s-m2}
  ,                                       !- Heating Maximum Air Flow {m3/s}
  ,                                       !- Heating Maximum Air Flow Fraction
  No,                                     !- Account for Dedicated Outdoor Air System
  NeutralSupplyAir,                       !- Dedicated Outdoor Air System Control Strategy
  autosize,                               !- Dedicated Outdoor Air Low Setpoint Temperature for Design {C}
  autosize,                               !- Dedicated Outdoor Air High Setpoint Temperature for Design {C}
  Sensible Load Only No Latent Load,      !- Zone Load Sizing Method
  HumidityRatioDifference,                !- Zone Latent Cooling Design Supply Air Humidity Ratio Input Method
  ,                                       !- Zone Dehumidification Design Supply Air Humidity Ratio {kgWater/kgDryAir}
  0.005,                                  !- Zone Cooling Design Supply Air Humidity Ratio Difference {kgWater/kgDryAir}
  HumidityRatioDifference,                !- Zone Latent Heating Design Supply Air Humidity Ratio Input Method
  ,                                       !- Zone Humidification Design Supply Air Humidity Ratio {kgWater/kgDryAir}
  0.005,                                  !- Zone Humidification Design Supply Air Humidity Ratio Difference {kgWater/kgDryAir}
  ,                                       !- Zone Humidistat Dehumidification Set Point Schedule Name
  ,                                       !- Zone Humidistat Humidification Set Point Schedule Name
  ,                                       !- Design Zone Air Distribution Effectiveness in Cooling Mode
  ,                                       !- Design Zone Air Distribution Effectiveness in Heating Mode
  ,                                       !- Design Zone Secondary Recirculation Fraction {dimensionless}
  ,                                       !- Design Minimum Zone Ventilation Efficiency {dimensionless}
  Coincident;                             !- Sizing Option

OS:ZoneHVAC:EquipmentList,
  {715e0ad7-e995-433f-b0e6-ab50bfae831e}, !- Handle
  Zone HVAC Equipment List 1,             !- Name
  {d510cb53-142b-4fe6-aea9-75a956ca6cea}, !- Thermal Zone
  ,                                       !- Load Distribution Scheme
  {0fea83e0-ba65-4adf-9eee-1d2215ebab6e}, !- Zone Equipment 1
  1,                                      !- Zone Equipment Cooling Sequence 1
  1,                                      !- Zone Equipment Heating or No-Load Sequence 1
  {57f8c0b3-df0b-4169-9a8e-e72f32885de7}, !- Zone Equipment Sequential Cooling Fraction Schedule Name 1
  {d637e7b0-c6fc-48a3-9283-ea5783539410}; !- Zone Equipment Sequential Heating Fraction Schedule Name 1

OS:AdditionalProperties,
  {7c531961-c240-4323-afdb-3ca976fc74c4}, !- Handle
  {d510cb53-142b-4fe6-aea9-75a956ca6cea}, !- Object Name
  ObjectType,                             !- Feature Name 1
  String,                                 !- Feature Data Type 1
  conditioned space;                      !- Feature Value 1

OS:Space,
  {64d4375d-7c93-4afe-8cfb-0c883e17cae5}, !- Handle
  conditioned space 1,                    !- Name
  ,                                       !- Space Type Name
  ,                                       !- Default Construction Set Name
  ,                                       !- Default Schedule Set Name
  ,                                       !- Direction of Relative North {deg}
  ,                                       !- X Origin {m}
  ,                                       !- Y Origin {m}
  ,                                       !- Z Origin {m}
  ,                                       !- Building Story Name
  {d510cb53-142b-4fe6-aea9-75a956ca6cea}, !- Thermal Zone Name
  ,                                       !- Part of Total Floor Area
  ,                                       !- Design Specification Outdoor Air Object Name
  ,                                       !- Building Unit Name
  346.03186535424;                        !- Volume {m3}

OS:Schedule:Ruleset,
  {75d03351-721c-4217-a9e7-7de4953184b9}, !- Handle
  heating setpoint,                       !- Name
  {f91d554c-246d-4d58-a5d6-822cec83dec5}, !- Schedule Type Limits Name
  {d454a301-deeb-4a57-a35a-de526caf5ca8}; !- Default Day Schedule Name

OS:Schedule:Day,
  {d454a301-deeb-4a57-a35a-de526caf5ca8}, !- Handle
  heating setpoint default day,           !- Name
  {f91d554c-246d-4d58-a5d6-822cec83dec5}, !- Schedule Type Limits Name
  ,                                       !- Interpolate to Timestep
  24,                                     !- Hour 1
  0,                                      !- Minute 1
  0;                                      !- Value Until Time 1

OS:Schedule:Rule,
  {aa58a859-fd15-42aa-b362-7090335ca65f}, !- Handle
  heating setpoint allday rule,           !- Name
  {75d03351-721c-4217-a9e7-7de4953184b9}, !- Schedule Ruleset Name
  0,                                      !- Rule Order
  {3e9ca536-c710-4f84-aa24-c79d00553956}, !- Day Schedule Name
  Yes,                                    !- Apply Sunday
  Yes,                                    !- Apply Monday
  Yes,                                    !- Apply Tuesday
  Yes,                                    !- Apply Wednesday
  Yes,                                    !- Apply Thursday
  Yes,                                    !- Apply Friday
  Yes,                                    !- Apply Saturday
  DateRange,                              !- Date Specification Type
  1,                                      !- Start Month
  1,                                      !- Start Day
  12,                                     !- End Month
  31;                                     !- End Day

OS:Schedule:Day,
  {3e9ca536-c710-4f84-aa24-c79d00553956}, !- Handle
  heating setpoint day,                   !- Name
  {f91d554c-246d-4d58-a5d6-822cec83dec5}, !- Schedule Type Limits Name
  ,                                       !- Interpolate to Timestep
  24,                                     !- Hour 1
  0,                                      !- Minute 1
  20;                                     !- Value Until Time 1

OS:Schedule:Ruleset,
  {b4e00d59-b23b-45e0-ae81-ef7428f5cc70}, !- Handle
  cooling setpoint,                       !- Name
  {f91d554c-246d-4d58-a5d6-822cec83dec5}, !- Schedule Type Limits Name
  {876c7014-1e99-4fb8-bfd4-9a204bb841b3}; !- Default Day Schedule Name

OS:Schedule:Day,
  {876c7014-1e99-4fb8-bfd4-9a204bb841b3}, !- Handle
  cooling setpoint default day,           !- Name
  {f91d554c-246d-4d58-a5d6-822cec83dec5}, !- Schedule Type Limits Name
  ,                                       !- Interpolate to Timestep
  24,                                     !- Hour 1
  0,                                      !- Minute 1
  0;                                      !- Value Until Time 1

OS:Schedule:Rule,
  {5a8b82a2-3a09-4e7a-b2ac-ee1f087c5a81}, !- Handle
  cooling setpoint allday rule,           !- Name
  {b4e00d59-b23b-45e0-ae81-ef7428f5cc70}, !- Schedule Ruleset Name
  0,                                      !- Rule Order
  {433f84a5-75ef-43bd-b972-64de71b1679e}, !- Day Schedule Name
  Yes,                                    !- Apply Sunday
  Yes,                                    !- Apply Monday
  Yes,                                    !- Apply Tuesday
  Yes,                                    !- Apply Wednesday
  Yes,                                    !- Apply Thursday
  Yes,                                    !- Apply Friday
  Yes,                                    !- Apply Saturday
  DateRange,                              !- Date Specification Type
  1,                                      !- Start Month
  1,                                      !- Start Day
  12,                                     !- End Month
  31;                                     !- End Day

OS:Schedule:Day,
  {433f84a5-75ef-43bd-b972-64de71b1679e}, !- Handle
  cooling setpoint day,                   !- Name
  {f91d554c-246d-4d58-a5d6-822cec83dec5}, !- Schedule Type Limits Name
  ,                                       !- Interpolate to Timestep
  24,                                     !- Hour 1
  0,                                      !- Minute 1
  25.5555555555556;                       !- Value Until Time 1

OS:ThermostatSetpoint:DualSetpoint,
  {017c9594-4c87-4dec-935e-e96a0d73dcfd}, !- Handle
  conditioned space temperature setpoint, !- Name
  {75d03351-721c-4217-a9e7-7de4953184b9}, !- Heating Setpoint Temperature Schedule Name
  {b4e00d59-b23b-45e0-ae81-ef7428f5cc70}, !- Cooling Setpoint Temperature Schedule Name
  0;                                      !- Temperature Difference Between Cutout And Setpoint {deltaC}

OS:ScheduleTypeLimits,
  {f91d554c-246d-4d58-a5d6-822cec83dec5}, !- Handle
  Temperature,                            !- Name
  ,                                       !- Lower Limit Value
  ,                                       !- Upper Limit Value
  Continuous,                             !- Numeric Type
  Temperature;                            !- Unit Type

OS:Surface,
  {0eded112-ba22-44d9-a26e-3f2fc3c3f86e}, !- Handle
  Roof1,                                  !- Name
  RoofCeiling,                            !- Surface Type
  {328a22f8-aa6f-495c-b6f1-a3cdb58b8e8d}, !- Construction Name
  {573b4410-8ecd-4695-88e7-f08c334ce170}, !- Space Name
  Outdoors,                               !- Outside Boundary Condition
  ,                                       !- Outside Boundary Condition Object
  SunExposed,                             !- Sun Exposure
  WindExposed,                            !- Wind Exposure
  ,                                       !- View Factor to Ground
  ,                                       !- Number of Vertices
  -25.0448166683368, 35.3267874683368, 2.4384, !- X,Y,Z Vertex 1 {m}
  -25.0448166683368, 27.3603626312597, 6.42161241853859, !- X,Y,Z Vertex 2 {m}
  -16.1380829316632, 27.3603626312596, 6.42161241853859, !- X,Y,Z Vertex 3 {m}
  -16.1380829316632, 35.3267874683368, 2.4384; !- X,Y,Z Vertex 4 {m}

OS:AdditionalProperties,
  {105b8a97-bed3-4dcf-b735-0d44a718f81c}, !- Handle
  {0eded112-ba22-44d9-a26e-3f2fc3c3f86e}, !- Object Name
  Length,                                 !- Feature Name 1
  Double,                                 !- Feature Data Type 1
  29.221567377538118,                     !- Feature Value 1
  Width,                                  !- Feature Name 2
  Double,                                 !- Feature Data Type 2
  29.221567377538118,                     !- Feature Value 2
  Azimuth,                                !- Feature Name 3
  Integer,                                !- Feature Data Type 3
  0,                                      !- Feature Value 3
  Tilt,                                   !- Feature Name 4
  Double,                                 !- Feature Data Type 4
  0.5,                                    !- Feature Value 4
  SurfaceType,                            !- Feature Name 5
  String,                                 !- Feature Data Type 5
  Roof;                                   !- Feature Value 5

OS:ThermalZone,
  {4f1d04c2-62dd-47b9-8e5e-65117d6a6cc2}, !- Handle
  attic - vented,                         !- Name
  1,                                      !- Multiplier
  ,                                       !- Ceiling Height {m}
  126.003218814318,                       !- Volume {m3}
  ,                                       !- Floor Area {m2}
  ,                                       !- Zone Inside Convection Algorithm
  ,                                       !- Zone Outside Convection Algorithm
  ,                                       !- Zone Conditioning Equipment List Name
  {c36be748-f188-43d6-876c-05b5b30759c4}, !- Zone Air Inlet Port List
  {95407cfe-9880-4a7b-b875-dc6d533799ab}, !- Zone Air Exhaust Port List
  {6031bf56-f9d3-4894-b833-91bbd6f7264a}, !- Zone Air Node Name
  {23e45c68-b47e-4973-a910-0b4876814ebe}, !- Zone Return Air Port List
  ,                                       !- Primary Daylighting Control Name
  ,                                       !- Fraction of Zone Controlled by Primary Daylighting Control
  ,                                       !- Secondary Daylighting Control Name
  ,                                       !- Fraction of Zone Controlled by Secondary Daylighting Control
  ,                                       !- Illuminance Map Name
  ,                                       !- Group Rendering Name
  ,                                       !- Thermostat Name
  No;                                     !- Use Ideal Air Loads

OS:Node,
  {39068d46-710b-464f-9655-f7a3b9f29edf}, !- Handle
  Node 2,                                 !- Name
  {6031bf56-f9d3-4894-b833-91bbd6f7264a}, !- Inlet Port
  ;                                       !- Outlet Port

OS:Connection,
  {6031bf56-f9d3-4894-b833-91bbd6f7264a}, !- Handle
  {4f1d04c2-62dd-47b9-8e5e-65117d6a6cc2}, !- Source Object
  11,                                     !- Outlet Port
  {39068d46-710b-464f-9655-f7a3b9f29edf}, !- Target Object
  2;                                      !- Inlet Port

OS:PortList,
  {c36be748-f188-43d6-876c-05b5b30759c4}, !- Handle
  {4f1d04c2-62dd-47b9-8e5e-65117d6a6cc2}; !- HVAC Component

OS:PortList,
  {95407cfe-9880-4a7b-b875-dc6d533799ab}, !- Handle
  {4f1d04c2-62dd-47b9-8e5e-65117d6a6cc2}; !- HVAC Component

OS:PortList,
  {23e45c68-b47e-4973-a910-0b4876814ebe}, !- Handle
  {4f1d04c2-62dd-47b9-8e5e-65117d6a6cc2}; !- HVAC Component

OS:Sizing:Zone,
  {d5116fcd-26a1-4092-8389-1b3f5078f4d1}, !- Handle
  {4f1d04c2-62dd-47b9-8e5e-65117d6a6cc2}, !- Zone or ZoneList Name
  SupplyAirTemperature,                   !- Zone Cooling Design Supply Air Temperature Input Method
  14,                                     !- Zone Cooling Design Supply Air Temperature {C}
  11.11,                                  !- Zone Cooling Design Supply Air Temperature Difference {deltaC}
  SupplyAirTemperature,                   !- Zone Heating Design Supply Air Temperature Input Method
  40,                                     !- Zone Heating Design Supply Air Temperature {C}
  11.11,                                  !- Zone Heating Design Supply Air Temperature Difference {deltaC}
  0.0085,                                 !- Zone Cooling Design Supply Air Humidity Ratio {kg-H2O/kg-air}
  0.008,                                  !- Zone Heating Design Supply Air Humidity Ratio {kg-H2O/kg-air}
  ,                                       !- Zone Heating Sizing Factor
  ,                                       !- Zone Cooling Sizing Factor
  DesignDay,                              !- Cooling Design Air Flow Method
  ,                                       !- Cooling Design Air Flow Rate {m3/s}
  ,                                       !- Cooling Minimum Air Flow per Zone Floor Area {m3/s-m2}
  ,                                       !- Cooling Minimum Air Flow {m3/s}
  ,                                       !- Cooling Minimum Air Flow Fraction
  DesignDay,                              !- Heating Design Air Flow Method
  ,                                       !- Heating Design Air Flow Rate {m3/s}
  ,                                       !- Heating Maximum Air Flow per Zone Floor Area {m3/s-m2}
  ,                                       !- Heating Maximum Air Flow {m3/s}
  ,                                       !- Heating Maximum Air Flow Fraction
  No,                                     !- Account for Dedicated Outdoor Air System
  NeutralSupplyAir,                       !- Dedicated Outdoor Air System Control Strategy
  autosize,                               !- Dedicated Outdoor Air Low Setpoint Temperature for Design {C}
  autosize,                               !- Dedicated Outdoor Air High Setpoint Temperature for Design {C}
  Sensible Load Only No Latent Load,      !- Zone Load Sizing Method
  HumidityRatioDifference,                !- Zone Latent Cooling Design Supply Air Humidity Ratio Input Method
  ,                                       !- Zone Dehumidification Design Supply Air Humidity Ratio {kgWater/kgDryAir}
  0.005,                                  !- Zone Cooling Design Supply Air Humidity Ratio Difference {kgWater/kgDryAir}
  HumidityRatioDifference,                !- Zone Latent Heating Design Supply Air Humidity Ratio Input Method
  ,                                       !- Zone Humidification Design Supply Air Humidity Ratio {kgWater/kgDryAir}
  0.005,                                  !- Zone Humidification Design Supply Air Humidity Ratio Difference {kgWater/kgDryAir}
  ,                                       !- Zone Humidistat Dehumidification Set Point Schedule Name
  ,                                       !- Zone Humidistat Humidification Set Point Schedule Name
  ,                                       !- Design Zone Air Distribution Effectiveness in Cooling Mode
  ,                                       !- Design Zone Air Distribution Effectiveness in Heating Mode
  ,                                       !- Design Zone Secondary Recirculation Fraction {dimensionless}
  ,                                       !- Design Minimum Zone Ventilation Efficiency {dimensionless}
  Coincident;                             !- Sizing Option

OS:ZoneHVAC:EquipmentList,
  {b4a74eb7-60da-4e23-a65b-e03f76b34b22}, !- Handle
  Zone HVAC Equipment List 2,             !- Name
  {4f1d04c2-62dd-47b9-8e5e-65117d6a6cc2}; !- Thermal Zone

OS:AdditionalProperties,
  {f49a1299-0e64-43ee-83fc-c68063efc364}, !- Handle
  {4f1d04c2-62dd-47b9-8e5e-65117d6a6cc2}, !- Object Name
  ObjectType,                             !- Feature Name 1
  String,                                 !- Feature Data Type 1
  attic - vented;                         !- Feature Value 1

OS:Space,
  {573b4410-8ecd-4695-88e7-f08c334ce170}, !- Handle
  attic - vented 1,                       !- Name
  ,                                       !- Space Type Name
  ,                                       !- Default Construction Set Name
  ,                                       !- Default Schedule Set Name
  ,                                       !- Direction of Relative North {deg}
  ,                                       !- X Origin {m}
  ,                                       !- Y Origin {m}
  ,                                       !- Z Origin {m}
  ,                                       !- Building Story Name
  {4f1d04c2-62dd-47b9-8e5e-65117d6a6cc2}, !- Thermal Zone Name
  ,                                       !- Part of Total Floor Area
  ,                                       !- Design Specification Outdoor Air Object Name
  ,                                       !- Building Unit Name
  126.003218814318;                       !- Volume {m3}

OS:Material,
  {f0591a45-e45d-47d7-9238-025b6d19b578}, !- Handle
  asphalt or fiberglass shingles,         !- Name
  Rough,                                  !- Roughness
  0.00635,                                !- Thickness {m}
  0.162714,                               !- Conductivity {W/m-K}
  1121.4,                                 !- Density {kg/m3}
  1465.45,                                !- Specific Heat {J/kg-K}
  0.9,                                    !- Thermal Absorptance
  0.85,                                   !- Solar Absorptance