
OS:Version,
  {2a3e5fbe-d6d0-4b8b-93de-b86e0b59f013}, !- Handle
  3.10.0;                                 !- Version Identifier

OS:SimulationControl,
  {437b0bd3-3d79-4690-8194-4c2b46434ffb}, !- Handle
  ,                                       !- Do Zone Sizing Calculation
  ,                                       !- Do System Sizing Calculation
  ,                                       !- Do Plant Sizing Calculation
  No;                                     !- Run Simulation for Sizing Periods

OS:Timestep,
  {95935d5f-55ca-4f70-b582-6c5c208192bd}, !- Handle
  1;                                      !- Number of Timesteps per Hour

OS:ShadowCalculation,
  {2149c8ae-ac70-41ef-a728-f152b03a128e}, !- Handle
  PolygonClipping,                        !- Shading Calculation Method
  ,                                       !- Shading Calculation Update Frequency Method
  20,                                     !- Shading Calculation Update Frequency
  200,                                    !- Maximum Figures in Shadow Overlap Calculations
  ,                                       !- Polygon Clipping Algorithm
  512,                                    !- Pixel Counting Resolution
  ,                                       !- Sky Diffuse Modeling Algorithm
  No,                                     !- Output External Shading Calculation Results
  No,                                     !- Disable Self-Shading Within Shading Zone Groups
  No;                                     !- Disable Self-Shading From Shading Zone Groups to Other Zones

OS:SurfaceConvectionAlgorithm:Outside,
  {2b45b652-f81e-44d4-b021-9d3c1901cc71}, !- Handle
  DOE-2;                                  !- Algorithm

OS:SurfaceConvectionAlgorithm:Inside,
  {d6035d8b-570f-4500-b62d-530d05264937}, !- Handle
  TARP;                                   !- Algorithm

OS:ZoneCapacitanceMultiplier:ResearchSpecial,
  {b7e3f364-5f63-4326-88f6-cfe708ede4f1}, !- Handle
  7,                                      !- Temperature Capacity Multiplier
  15,                                     !- Humidity Capacity Multiplier
  ;                                       !- Carbon Dioxide Capacity Multiplier

OS:ConvergenceLimits,
  {3c5280d5-d081-4462-b4c6-1ab7740c8446}, !- Handle
  0;                                      !- Minimum System Timestep {minutes}

OS:RunPeriod,
  {593ac23f-e9cf-4fb3-b468-4849f5982483}, !- Handle
  Run Period 1,                           !- Name
  1,                                      !- Begin Month
  1,                                      !- Begin Day of Month
  12,                                     !- End Month
  31,                                     !- End Day of Month
  ,                                       !- Use Weather File Holidays and Special Days
  ,                                       !- Use Weather File Daylight Saving Period
  ,                                       !- Apply Weekend Holiday Rule
  ,                                       !- Use Weather File Rain Indicators
  ,                                       !- Use Weather File Snow Indicators
  ;                                       !- Number of Times Runperiod to be Repeated

OS:PerformancePrecisionTradeoffs,
  {8420d812-311b-4e2f-9d9b-7fa73c06bc5e}, !- Handle
  ,                                       !- Use Coil Direct Solutions
  CarrollMRT;                             !- Zone Radiant Exchange Algorithm

OS:WeatherFile,
  {6fdd8939-3b3c-403e-86b9-43fa3a9e1006}, !- Handle
  Buffalo Niagara Intl Ap,                !- City
  NY,                                     !- State Province Region
  USA,                                    !- Country
  TMY3,                                   !- Data Source
  725280,                                 !- WMO Number
  42.93,                                  !- Latitude {deg}
  -78.73,                                 !- Longitude {deg}
  -5,                                     !- Time Zone {hr}
  215,                                    !- Elevation {m}
  /Users/nmoore/github/urbanopt-example-geojson-project/example_project/weather/USA_NY_Buffalo-Greater.Buffalo.Intl.AP.725280_TMY3.epw, !- Url
  6B50E0FF,                               !- Checksum
  ,                                       !- Start Date Actual Year
  Sunday;                                 !- Start Day of Week

OS:YearDescription,
  {c3e5385a-1304-4069-806c-7f6a582b6851}, !- Handle
  2007,                                   !- Calendar Year
  ,                                       !- Day of Week for Start Day
  ;                                       !- Is Leap Year

OS:Site,
  {bd4012f4-290d-46ea-aa0f-3aabe0067d53}, !- Handle
  Buffalo Niagara Intl Ap_NY,             !- Name
  42.93,                                  !- Latitude {deg}
  -78.73,                                 !- Longitude {deg}
  -5,                                     !- Time Zone {hr}
  215,                                    !- Elevation {m}
  Suburbs,                                !- Terrain
  Yes;                                    !- Keep Site Location Information

OS:RunPeriodControl:DaylightSavingTime,
  {c02c7269-2db9-4114-b188-742500b3f8aa}, !- Handle
  Mar 12,                                 !- Start Date
  Nov 5;                                  !- End Date

OS:Site:GroundTemperature:Shallow,
  {c15d2577-9836-4e06-9852-d4ac096b6eec}, !- Handle
  4.30207395723828,                       !- January Surface Ground Temperature {C}
  2.29327249652502,                       !- February Surface Ground Temperature {C}
  2.13240047156047,                       !- March Surface Ground Temperature {C}
  3.08567940719286,                       !- April Surface Ground Temperature {C}
  6.91256312497526,                       !- May Surface Ground Temperature {C}
  10.7216195949507,                       !- June Surface Ground Temperature {C}
  14.0238679822574,                       !- July Surface Ground Temperature {C}
  16.1157611184724,                       !- August Surface Ground Temperature {C}
  16.2934789303462,                       !- September Surface Ground Temperature {C}
  14.5920754632847,                       !- October Surface Ground Temperature {C}
  11.374036348653,                        !- November Surface Ground Temperature {C}
  7.68182621661674;                       !- December Surface Ground Temperature {C}

OS:ThermalZone,
  {05460594-f4f8-4ac8-ac4b-14cf06782fd2}, !- Handle
  conditioned space,                      !- Name
  1,                                      !- Multiplier
  ,                                       !- Ceiling Height {m}
  346.03186535424,                        !- Volume {m3}
  ,                                       !- Floor Area {m2}
  ,                                       !- Zone Inside Convection Algorithm
  ,                                       !- Zone Outside Convection Algorithm
  ,                                       !- Zone Conditioning Equipment List Name
  {50052565-19ef-4de6-abfc-4e4d2e5b4347}, !- Zone Air Inlet Port List
  {9d2f5752-772c-424d-be2a-f22dedaff475}, !- Zone Air Exhaust Port List
  {27deeffa-97f1-4e10-ab85-542c4d7bf11e}, !- Zone Air Node Name
  {d7e6bb2e-a780-428a-be49-d196d400a8b0}, !- Zone Return Air Port List
  ,                                       !- Primary Daylighting Control Name
  ,                                       !- Fraction of Zone Controlled by Primary Daylighting Control
  ,                                       !- Secondary Daylighting Control Name
  ,                                       !- Fraction of Zone Controlled by Secondary Daylighting Control
  ,                                       !- Illuminance Map Name
  ,                                       !- Group Rendering Name
  {35edb7d8-e60b-44cf-8176-a85bd7d31d61}, !- Thermostat Name
  No;                                     !- Use Ideal Air Loads

OS:Node,
  {8d23f302-748a-4962-8195-b928bbcdeeba}, !- Handle
  Node 1,                                 !- Name
  {27deeffa-97f1-4e10-ab85-542c4d7bf11e}, !- Inlet Port
  ;                                       !- Outlet Port

OS:Connection,
  {27deeffa-97f1-4e10-ab85-542c4d7bf11e}, !- Handle
  {05460594-f4f8-4ac8-ac4b-14cf06782fd2}, !- Source Object
  11,                                     !- Outlet Port
  {8d23f302-748a-4962-8195-b928bbcdeeba}, !- Target Object
  2;                                      !- Inlet Port

OS:PortList,
  {50052565-19ef-4de6-abfc-4e4d2e5b4347}, !- Handle
  {05460594-f4f8-4ac8-ac4b-14cf06782fd2}, !- HVAC Component
  {dbbf4265-0d63-41d3-9a61-2ff4a733c9b8}; !- Port 1

OS:PortList,
  {9d2f5752-772c-424d-be2a-f22dedaff475}, !- Handle
  {05460594-f4f8-4ac8-ac4b-14cf06782fd2}; !- HVAC Component

OS:PortList,
  {d7e6bb2e-a780-428a-be49-d196d400a8b0}, !- Handle
  {05460594-f4f8-4ac8-ac4b-14cf06782fd2}, !- HVAC Component
  {e45130cb-bd12-4199-9e90-adabdf9ca542}; !- Port 1

OS:Sizing:Zone,
  {fd71db5d-b84c-4d0a-8ba1-aa4f1e3d6fd2}, !- Handle
  {05460594-f4f8-4ac8-ac4b-14cf06782fd2}, !- Zone or ZoneList Name
  SupplyAirTemperature,                   !- Zone Cooling Design Supply Air Temperature Input Method
  14,                                     !- Zone Cooling Design Supply Air Temperature {C}
  11.11,                                  !- Zone Cooling Design Supply Air Temperature Difference {deltaC}
  SupplyAirTemperature,                   !- Zone Heating Design Supply Air Temperature Input Method
  40,                                     !- Zone Heating Design Supply Air Temperature {C}
  11.11,                                  !- Zone Heating Design Supply Air Temperature Difference {deltaC}
  0.0085,                                 !- Zone Cooling Design Supply Air Humidity Ratio {kg-H2O/kg-air}
  0.008,                                  !- Zone Heating Design Supply Air Humidity Ratio {kg-H2O/kg-air}
  ,                                       !- Zone Heating Sizing Factor
  ,                                       !- Zone Cooling Sizing Factor
  DesignDay,                              !- Cooling Design Air Flow Method
  ,                                       !- Cooling Design Air Flow Rate {m3/s}
  ,                                       !- Cooling Minimum Air Flow per Zone Floor Area {m3/s-m2}
  ,                                       !- Cooling Minimum Air Flow {m3/s}
  ,                                       !- Cooling Minimum Air Flow Fraction
  DesignDay,                              !- Heating Design Air Flow Method
  ,                                       !- Heating Design Air Flow Rate {m3/s}
  ,                                       !- Heating Maximum Air Flow per Zone Floor Area {m3/s-m2}
  ,                                       !- Heating Maximum Air Flow {m3/s}
  ,                                       !- Heating Maximum Air Flow Fraction
  No,                                     !- Account for Dedicated Outdoor Air System
  NeutralSupplyAir,                       !- Dedicated Outdoor Air System Control Strategy
  autosize,                               !- Dedicated Outdoor Air Low Setpoint Temperature for Design {C}
  autosize,                               !- Dedicated Outdoor Air High Setpoint Temperature for Design {C}
  Sensible Load Only No Latent Load,      !- Zone Load Sizing Method
  HumidityRatioDifference,                !- Zone Latent Cooling Design Supply Air Humidity Ratio Input Method
  ,                                       !- Zone Dehumidification Design Supply Air Humidity Ratio {kgWater/kgDryAir}
  0.005,                                  !- Zone Cooling Design Supply Air Humidity Ratio Difference {kgWater/kgDryAir}
  HumidityRatioDifference,                !- Zone Latent Heating Design Supply Air Humidity Ratio Input Method
  ,                                       !- Zone Humidification Design Supply Air Humidity Ratio {kgWater/kgDryAir}
  0.005,                                  !- Zone Humidification Design Supply Air Humidity Ratio Difference {kgWater/kgDryAir}
  ,                                       !- Zone Humidistat Dehumidification Set Point Schedule Name
  ,                                       !- Zone Humidistat Humidification Set Point Schedule Name
  ,                                       !- Design Zone Air Distribution Effectiveness in Cooling Mode
  ,                                       !- Design Zone Air Distribution Effectiveness in Heating Mode
  ,                                       !- Design Zone Secondary Recirculation Fraction {dimensionless}
  ,                                       !- Design Minimum Zone Ventilation Efficiency {dimensionless}
  Coincident;                             !- Sizing Option

OS:ZoneHVAC:EquipmentList,
  {4f94ab03-af86-407b-8a7c-03199046b96b}, !- Handle
  Zone HVAC Equipment List 1,             !- Name
  {05460594-f4f8-4ac8-ac4b-14cf06782fd2}, !- Thermal Zone
  ,                                       !- Load Distribution Scheme
  {75a051be-2d39-46ea-8a16-fb13ac002a01}, !- Zone Equipment 1
  1,                                      !- Zone Equipment Cooling Sequence 1
  1,                                      !- Zone Equipment Heating or No-Load Sequence 1
  {cc0a32b4-5469-4c80-8a23-bdcdaec1f685}, !- Zone Equipment Sequential Cooling Fraction Schedule Name 1
  {4b1c12e5-80ba-4569-87b8-ca6a1716868c}; !- Zone Equipment Sequential Heating Fraction Schedule Name 1

OS:AdditionalProperties,
  {e388b742-6a27-4aea-a8fb-3e9817eb1da2}, !- Handle
  {05460594-f4f8-4ac8-ac4b-14cf06782fd2}, !- Object Name
  ObjectType,                             !- Feature Name 1
  String,                                 !- Feature Data Type 1
  conditioned space;                      !- Feature Value 1

OS:Space,
  {2d405d0c-faf2-4c35-b12f-68c88a23be34}, !- Handle
  conditioned space 1,                    !- Name
  ,                                       !- Space Type Name
  ,                                       !- Default Construction Set Name
  ,                                       !- Default Schedule Set Name
  ,                                       !- Direction of Relative North {deg}
  ,                                       !- X Origin {m}
  ,                                       !- Y Origin {m}
  ,                                       !- Z Origin {m}
  ,                                       !- Building Story Name
  {05460594-f4f8-4ac8-ac4b-14cf06782fd2}, !- Thermal Zone Name
  ,                                       !- Part of Total Floor Area
  ,                                       !- Design Specification Outdoor Air Object Name
  ,                                       !- Building Unit Name
  346.03186535424;                        !- Volume {m3}

OS:Schedule:Ruleset,
  {d6f5bd0b-13d0-4eaa-927c-d2872cb0afa3}, !- Handle
  heating setpoint,                       !- Name
  {dcc05c1f-7ec9-4565-9bb7-cdbe340f3c6c}, !- Schedule Type Limits Name
  {be039217-aac7-4fd6-841b-314618d27e1f}; !- Default Day Schedule Name

OS:Schedule:Day,
  {be039217-aac7-4fd6-841b-314618d27e1f}, !- Handle
  heating setpoint default day,           !- Name
  {dcc05c1f-7ec9-4565-9bb7-cdbe340f3c6c}, !- Schedule Type Limits Name
  ,                                       !- Interpolate to Timestep
  24,                                     !- Hour 1
  0,                                      !- Minute 1
  0;                                      !- Value Until Time 1

OS:Schedule:Rule,
  {a68a7217-dd57-4ea8-b616-ac716bb0315e}, !- Handle
  heating setpoint allday rule,           !- Name
  {d6f5bd0b-13d0-4eaa-927c-d2872cb0afa3}, !- Schedule Ruleset Name
  0,                                      !- Rule Order
  {2ab3afc1-fea3-4340-97a5-d2f6edfde3f0}, !- Day Schedule Name
  Yes,                                    !- Apply Sunday
  Yes,                                    !- Apply Monday
  Yes,                                    !- Apply Tuesday
  Yes,                                    !- Apply Wednesday
  Yes,                                    !- Apply Thursday
  Yes,                                    !- Apply Friday
  Yes,                                    !- Apply Saturday
  DateRange,                              !- Date Specification Type
  1,                                      !- Start Month
  1,                                      !- Start Day
  12,                                     !- End Month
  31;                                     !- End Day

OS:Schedule:Day,
  {2ab3afc1-fea3-4340-97a5-d2f6edfde3f0}, !- Handle
  heating setpoint day,                   !- Name
  {dcc05c1f-7ec9-4565-9bb7-cdbe340f3c6c}, !- Schedule Type Limits Name
  ,                                       !- Interpolate to Timestep
  24,                                     !- Hour 1
  0,                                      !- Minute 1
  20;                                     !- Value Until Time 1

OS:Schedule:Ruleset,
  {73fbdeb0-3988-4944-a8a0-2d27ee4967ff}, !- Handle
  cooling setpoint,                       !- Name
  {dcc05c1f-7ec9-4565-9bb7-cdbe340f3c6c}, !- Schedule Type Limits Name
  {9f999105-d8ff-4bf1-91ad-a73606080efe}; !- Default Day Schedule Name

OS:Schedule:Day,
  {9f999105-d8ff-4bf1-91ad-a73606080efe}, !- Handle
  cooling setpoint default day,           !- Name
  {dcc05c1f-7ec9-4565-9bb7-cdbe340f3c6c}, !- Schedule Type Limits Name
  ,                                       !- Interpolate to Timestep
  24,                                     !- Hour 1
  0,                                      !- Minute 1
  0;                                      !- Value Until Time 1

OS:Schedule:Rule,
  {bd2b56ea-85d6-4f98-acab-f5762731fb5b}, !- Handle
  cooling setpoint allday rule,           !- Name
  {73fbdeb0-3988-4944-a8a0-2d27ee4967ff}, !- Schedule Ruleset Name
  0,                                      !- Rule Order
  {9468d7c4-46bd-4e05-9eb0-f286edca5677}, !- Day Schedule Name
  Yes,                                    !- Apply Sunday
  Yes,                                    !- Apply Monday
  Yes,                                    !- Apply Tuesday
  Yes,                                    !- Apply Wednesday
  Yes,                                    !- Apply Thursday
  Yes,                                    !- Apply Friday
  Yes,                                    !- Apply Saturday
  DateRange,                              !- Date Specification Type
  1,                                      !- Start Month
  1,                                      !- Start Day
  12,                                     !- End Month
  31;                                     !- End Day

OS:Schedule:Day,
  {9468d7c4-46bd-4e05-9eb0-f286edca5677}, !- Handle
  cooling setpoint day,                   !- Name
  {dcc05c1f-7ec9-4565-9bb7-cdbe340f3c6c}, !- Schedule Type Limits Name
  ,                                       !- Interpolate to Timestep
  24,                                     !- Hour 1
  0,                                      !- Minute 1
  25.5555555555556;                       !- Value Until Time 1

OS:ThermostatSetpoint:DualSetpoint,
  {35edb7d8-e60b-44cf-8176-a85bd7d31d61}, !- Handle
  conditioned space temperature setpoint, !- Name
  {d6f5bd0b-13d0-4eaa-927c-d2872cb0afa3}, !- Heating Setpoint Temperature Schedule Name
  {73fbdeb0-3988-4944-a8a0-2d27ee4967ff}, !- Cooling Setpoint Temperature Schedule Name
  0;                                      !- Temperature Difference Between Cutout And Setpoint {deltaC}

OS:ScheduleTypeLimits,
  {dcc05c1f-7ec9-4565-9bb7-cdbe340f3c6c}, !- Handle
  Temperature,                            !- Name
  ,                                       !- Lower Limit Value
  ,                                       !- Upper Limit Value
  Continuous,                             !- Numeric Type
  Temperature;                            !- Unit Type

OS:Surface,
  {5d58262d-bdb8-45c9-814b-8d0bd03bd19f}, !- Handle
  Roof1,                                  !- Name
  RoofCeiling,                            !- Surface Type
  {1a68a3f3-e71a-4eb7-90ec-bb3698a5b810}, !- Construction Name
  {2d405d0c-faf2-4c35-b12f-68c88a23be34}, !- Space Name
  Outdoors,                               !- Outside Boundary Condition
  ,                                       !- Outside Boundary Condition Object
  SunExposed,                             !- Sun Exposure
  WindExposed,                            !- Wind Exposure
  ,                                       !- View Factor to Ground
  ,                                       !- Number of Vertices
  -22.0836375774516, 27.3802233774516, 2.4384, !- X,Y,Z Vertex 1 {m}
  -22.0836375774516, 20.8754743017685, 5.69077453784155, !- X,Y,Z Vertex 2 {m}
  -14.8111070225484, 20.8754743017685, 5.69077453784155, !- X,Y,Z Vertex 3 {m}
  -14.8111070225484, 27.3802233774516, 2.4384; !- X,Y,Z Vertex 4 {m}

OS:AdditionalProperties,
  {2f8e4d7b-ecad-4ef4-b33a-c6f869a8d113}, !- Handle
  {5d58262d-bdb8-45c9-814b-8d0bd03bd19f}, !- Object Name
  Length,                                 !- Feature Name 1
  Double,                                 !- Feature Data Type 1
  23.860008382228202,                     !- Feature Value 1
  Width,                                  !- Feature Name 2
  Double,                                 !- Feature Data Type 2
  23.860008382228198,                     !- Feature Value 2
  Azimuth,                                !- Feature Name 3
  Integer,                                !- Feature Data Type 3
  0,                                      !- Feature Value 3
  Tilt,                                   !- Feature Name 4
  Double,                                 !- Feature Data Type 4
  0.5,                                    !- Feature Value 4
  SurfaceType,                            !- Feature Name 5
  String,                                 !- Feature Data Type 5
  Roof;                                   !- Feature Value 5

OS:Material,
  {631c20d7-f5af-4ded-9b2b-b004d08a434f}, !- Handle
  asphalt or fiberglass shingles,         !- Name
  Rough,                                  !- Roughness
  0.00635,                                !- Thickness {m}
  0.162714,                               !- Conductivity {W/m-K}
  1121.4,                                 !- Density {kg/m3}
  1465.45,                                !- Specific Heat {J/kg-K}
  0.9,                                    !- Thermal Absorptance
  0.85,                                   !- Solar Absorptance
  0.85;                                   !- Visible Absorptance

OS:Material,
  {254dceb2-faea-4db6-96db-21645898db5f}, !- Handle
  roof stud and cavity,                   !- Name
  Rough,                                  !- Roughness
  0.0889,                                 !- Thickness {m}
  0.468249472857624,                      !- Conductivity {W/m-K}
  50.32683,                               !- Density {kg/m3}
  1063.80987585548,                       !- Specific Heat {J/kg-K}
  0.9,                                    !- Thermal Absorptance
  0.7,                                    !- Solar Absorptance
  0.7;                                    !- Visible Absorptance

OS:Material,
  {ef500c14-8250-4341-9499-67ee5a671736}, !- Handle
  gypsum board,                           !- Name
  Rough,                                  !- Roughness
  0.00254,                                !- Thickness {m}
  0.1602906,                              !- Conductivity {W/m-K}
  801,                                    !- Density {kg/m3}
  837.4,                                  !- Specific Heat {J/kg-K}
  0.9,                                    !- Thermal Absorptance
  0.6,                                    !- Solar Absorptance
  0.6;                                    !- Visible Absorptance

OS:Construction,
  {1a68a3f3-e71a-4eb7-90ec-bb3698a5b810}, !- Handle
  Roof1 construction,                     !- Name
  ,                                       !- Surface Rendering Name
  {631c20d7-f5af-4ded-9b2b-b004d08a434f}, !- Layer 1
  {254dceb2-faea-4db6-96db-21645898db5f}, !- Layer 2
  {ef500c14-8250-4341-9499-67ee5a671736}; !- Layer 3

OS:Surface,
  {892d2217-a664-4a33-a00b-ad46506089ca}, !- Handle
  Roof2,                                  !- Name
  RoofCeiling,                            !- Surface Type
  {07b1a87c-659e-4602-86e8-67bfb5762a87}, !- Construction Name
  {2d405d0c-faf2-4c35-b12f-68c88a23be34}, !- Space Name
  Outdoors,                               !- Outside Boundary Condition
  ,                                       !- Outside Boundary Condition Object
  SunExposed,                             !- Sun Exposure
  WindExposed,                            !- Wind Exposure
  ,                                       !- View Factor to Ground
  ,                                       !- Number of Vertices
  -20.1076928225484, -27.3802233774516, 2.4384, !- X,Y,Z Vertex 1 {m}
  -20.1076928225484, -20.8754743017685, 5.69077453784155, !- X,Y,Z Vertex 2 {m}
  -27.3802233774516, -20.8754743017685, 5.69077453784155, !- X,Y,Z Vertex 3 {m}
  -27.3802233774516, -27.3802233774516, 2.4384; !- X,Y,Z Vertex 4 {m}

OS:AdditionalProperties,
  {f2759e10-f5e5-415e-85ac-bf5867d03ee4}, !- Handle
  {892d2217-a664-4a33-a00b-ad46506089ca}, !- Object Name
  Length,                                 !- Feature Name 1
  Double,                                 !- Feature Data Type 1
  23.860008382228202,                     !- Feature Value 1
  Width,                                  !- Feature Name 2
  Double,                                 !- Feature Data Type 2
  23.860008382228198,                     !- Feature Value 2
  Azimuth,                                !- Feature Name 3
  Integer,                                !- Feature Data Type 3
  180,                                    !- Feature Value 3
  Tilt,                                   !- Feature Name 4
  Double,                                 !- Feature Data Type 4
  0.5,                                    !- Feature Value 4
  SurfaceType,                            !- Feature Name 5
  String,                                 !- Feature Data Type 5
  Roof;                                   !- Feature Value 5

OS:Construction,
  {07b1a87c-659e-4602-86e8-67bfb5762a87}, !- Handle
  Roof2 construction,                     !- Name
  ,                                       !- Surface Rendering Name
  {631c20d7-f5af-4ded-9b2b-b004d08a434f}, !- Layer 1
  {254dceb2-faea-4db6-96db-21645898db5f}, !- Layer 2
  {ef500c14-8250-4341-9499-67ee5a671736}; !- Layer 3

OS:Surface,
  {6c1d2b24-9002-48bf-9f97-bc3b622a5a69}, !- Handle
  Wall1,                                  !- Name
  Wall,                                   !- Surface Type
  {a26b11ce-03bb-4b27-8ddf-8db8b43e255c}, !- Construction Name
  {2d405d0c-faf2-4c35-b12f-68c88a23be34}, !- Space Name
  Outdoors,                               !- Outside Boundary Condition
  ,                                       !- Outside Boundary Condition Object
  SunExposed,                             !- Sun Exposure
  WindExposed,                            !- Wind Exposure
  ,                                       !- View Factor to Ground
  ,                                       !- Number of Vertices
  -26.4511929774516, 27.3802233774516, 0, !- X,Y,Z Vertex 1 {m}
  -26.4511929774516, 27.3802233774516, 4.8768, !- X,Y,Z Vertex 2 {m}
  -23.0126679774516, 27.3802233774516, 4.8768, !- X,Y,Z Vertex 3 {m}
  -23.0126679774516, 27.3802233774516, 0; !- X,Y,Z Vertex 4 {m}

OS:AdditionalProperties,
  {d5bb8219-c1c4-40eb-86fe-aaf477ac9890}, !- Handle
  {6c1d2b24-9002-48bf-9f97-bc3b622a5a69}, !- Object Name
  Length,                                 !- Feature Name 1
  Double,                                 !- Feature Data Type 1
  11.28125,                               !- Feature Value 1
  Azimuth,                                !- Feature Name 2
  Integer,                                !- Feature Data Type 2
  0,                                      !- Feature Value 2
  Tilt,                                   !- Feature Name 3
  Double,                                 !- Feature Data Type 3
  90,                                     !- Feature Value 3
  SurfaceType,                            !- Feature Name 4
  String,                                 !- Feature Data Type 4
  Wall;                                   !- Feature Value 4

OS:Material,
  {10804d20-2365-4705-9ac0-b0ee3747255c}, !- Handle
  wood siding,                            !- Name
  Rough,                                  !- Roughness
  0.0254,                                 !- Thickness {m}
  0.1024175,                              !- Conductivity {W/m-K}
  544.68,                                 !- Density {kg/m3}
  1172.36,                                !- Specific Heat {J/kg-K}
  0.9,                                    !- Thermal Absorptance
  0.7,                                    !- Solar Absorptance
  0.7;                                    !- Visible Absorptance

OS:Material,
  {60135060-9435-467f-8d79-5fe2d83986c1}, !- Handle
  osb sheathing 0.5 in.,                  !- Name
  Rough,                                  !- Roughness
  0.0127,                                 !- Thickness {m}
  0.1154577,                              !- Conductivity {W/m-K}
  512.64,                                 !- Density {kg/m3}
  1214.23,                                !- Specific Heat {J/kg-K}
  0.9,                                    !- Thermal Absorptance
  0.7,                                    !- Solar Absorptance
  0.7;                                    !- Visible Absorptance

OS:Material,
  {b3b09ee7-694b-4b3f-88af-315dc79b7d67}, !- Handle
  wall stud and cavity,                   !- Name
  Rough,                                  !- Roughness
  0.1397,                                 !- Thickness {m}
  0.0929021674204099,                     !- Conductivity {W/m-K}
  139.0536,                               !- Density {kg/m3}
  1170.23755760369,                       !- Specific Heat {J/kg-K}
  0.9,                                    !- Thermal Absorptance
  0.7,                                    !- Solar Absorptance