
OS:Version,
  {944987ec-c826-4a36-aa63-1e1cbb162583}, !- Handle
  3.9.0;                                  !- Version Identifier

OS:SimulationControl,
  {1d14ff98-1e79-48ac-8ac5-08f87c2fdb23}, !- Handle
  ,                                       !- Do Zone Sizing Calculation
  ,                                       !- Do System Sizing Calculation
  ,                                       !- Do Plant Sizing Calculation
  No;                                     !- Run Simulation for Sizing Periods

OS:Timestep,
  {7fefc747-e9ef-4057-8a2d-4e68f08a617c}, !- Handle
  1;                                      !- Number of Timesteps per Hour

OS:ShadowCalculation,
  {256bfe13-08f4-41a8-85d9-c7416157d63a}, !- Handle
  PolygonClipping,                        !- Shading Calculation Method
  ,                                       !- Shading Calculation Update Frequency Method
  20,                                     !- Shading Calculation Update Frequency
  200,                                    !- Maximum Figures in Shadow Overlap Calculations
  ,                                       !- Polygon Clipping Algorithm
  512,                                    !- Pixel Counting Resolution
  ,                                       !- Sky Diffuse Modeling Algorithm
  No,                                     !- Output External Shading Calculation Results
  No,                                     !- Disable Self-Shading Within Shading Zone Groups
  No;                                     !- Disable Self-Shading From Shading Zone Groups to Other Zones

OS:SurfaceConvectionAlgorithm:Outside,
  {bdaa8032-88be-4750-9df8-8a7df19baa93}, !- Handle
  DOE-2;                                  !- Algorithm

OS:SurfaceConvectionAlgorithm:Inside,
  {33c938a3-8291-45be-869a-0c6fb5c396f4}, !- Handle
  TARP;                                   !- Algorithm

OS:ZoneCapacitanceMultiplier:ResearchSpecial,
  {1947f3d3-4242-4d73-a40f-477abd9b7cf5}, !- Handle
  7,                                      !- Temperature Capacity Multiplier
  15,                                     !- Humidity Capacity Multiplier
  ;                                       !- Carbon Dioxide Capacity Multiplier

OS:ConvergenceLimits,
  {b0233330-32c4-4545-8e00-3ed053646350}, !- Handle
  0;                                      !- Minimum System Timestep {minutes}

OS:RunPeriod,
  {a22a26c3-6a42-4d64-b4a6-39863475a481}, !- Handle
  Run Period 1,                           !- Name
  1,                                      !- Begin Month
  1,                                      !- Begin Day of Month
  12,                                     !- End Month
  31,                                     !- End Day of Month
  ,                                       !- Use Weather File Holidays and Special Days
  ,                                       !- Use Weather File Daylight Saving Period
  ,                                       !- Apply Weekend Holiday Rule
  ,                                       !- Use Weather File Rain Indicators
  ,                                       !- Use Weather File Snow Indicators
  ;                                       !- Number of Times Runperiod to be Repeated

OS:PerformancePrecisionTradeoffs,
  {4c23564b-c1a6-4cee-bd31-e84cc5421017}, !- Handle
  ,                                       !- Use Coil Direct Solutions
  CarrollMRT;                             !- Zone Radiant Exchange Algorithm

OS:WeatherFile,
  {35838f3e-fc52-4d6d-8541-189618dedab6}, !- Handle
  Buffalo Niagara Intl Ap,                !- City
  NY,                                     !- State Province Region
  USA,                                    !- Country
  TMY3,                                   !- Data Source
  725280,                                 !- WMO Number
  42.93,                                  !- Latitude {deg}
  -78.73,                                 !- Longitude {deg}
  -5,                                     !- Time Zone {hr}
  215,                                    !- Elevation {m}
  /Users/nmoore/github/urbanopt-example-geojson-project/example_project/weather/USA_NY_Buffalo-Greater.Buffalo.Intl.AP.725280_TMY3.epw, !- Url
  6B50E0FF,                               !- Checksum
  ,                                       !- Start Date Actual Year
  Sunday;                                 !- Start Day of Week

OS:YearDescription,
  {57400e01-7874-4453-a156-4e0935989f19}, !- Handle
  2007,                                   !- Calendar Year
  ,                                       !- Day of Week for Start Day
  ;                                       !- Is Leap Year

OS:Site,
  {70166981-ac9e-4df8-b2ef-d14eb4132cfc}, !- Handle
  Buffalo Niagara Intl Ap_NY,             !- Name
  42.93,                                  !- Latitude {deg}
  -78.73,                                 !- Longitude {deg}
  -5,                                     !- Time Zone {hr}
  215,                                    !- Elevation {m}
  Suburbs,                                !- Terrain
  Yes;                                    !- Keep Site Location Information

OS:RunPeriodControl:DaylightSavingTime,
  {a3da316f-2fea-41ab-b972-1c5573ec4b12}, !- Handle
  Mar 12,                                 !- Start Date
  Nov 5;                                  !- End Date

OS:Site:GroundTemperature:Shallow,
  {04c7aa35-783c-4b65-80c4-74a890fe1511}, !- Handle
  4.30207395723828,                       !- January Surface Ground Temperature {C}
  2.29327249652502,                       !- February Surface Ground Temperature {C}
  2.13240047156047,                       !- March Surface Ground Temperature {C}
  3.08567940719286,                       !- April Surface Ground Temperature {C}
  6.91256312497526,                       !- May Surface Ground Temperature {C}
  10.7216195949507,                       !- June Surface Ground Temperature {C}
  14.0238679822574,                       !- July Surface Ground Temperature {C}
  16.1157611184724,                       !- August Surface Ground Temperature {C}
  16.2934789303462,                       !- September Surface Ground Temperature {C}
  14.5920754632847,                       !- October Surface Ground Temperature {C}
  11.374036348653,                        !- November Surface Ground Temperature {C}
  7.68182621661674;                       !- December Surface Ground Temperature {C}

OS:ThermalZone,
  {21eee112-16d2-4344-b46a-a73e2836511f}, !- Handle
  conditioned space,                      !- Name
  1,                                      !- Multiplier
  ,                                       !- Ceiling Height {m}
  346.03186535424,                        !- Volume {m3}
  ,                                       !- Floor Area {m2}
  ,                                       !- Zone Inside Convection Algorithm
  ,                                       !- Zone Outside Convection Algorithm
  ,                                       !- Zone Conditioning Equipment List Name
  {e10fba6a-7729-4656-bce7-d8c9876a0986}, !- Zone Air Inlet Port List
  {234dcc46-4d61-432b-b7a1-8e1cbae66b4f}, !- Zone Air Exhaust Port List
  {39dca597-58c8-4f50-b4dd-b0ee9c3626c1}, !- Zone Air Node Name
  {09f0ba5a-4167-4300-accd-8bc9c46f45b3}, !- Zone Return Air Port List
  ,                                       !- Primary Daylighting Control Name
  ,                                       !- Fraction of Zone Controlled by Primary Daylighting Control
  ,                                       !- Secondary Daylighting Control Name
  ,                                       !- Fraction of Zone Controlled by Secondary Daylighting Control
  ,                                       !- Illuminance Map Name
  ,                                       !- Group Rendering Name
  {82eefdde-5d23-4f9e-8f32-d74dfcf479ed}, !- Thermostat Name
  No;                                     !- Use Ideal Air Loads

OS:Node,
  {8493cf37-9657-486e-b6c7-b84622f2feb0}, !- Handle
  Node 1,                                 !- Name
  {39dca597-58c8-4f50-b4dd-b0ee9c3626c1}, !- Inlet Port
  ;                                       !- Outlet Port

OS:Connection,
  {39dca597-58c8-4f50-b4dd-b0ee9c3626c1}, !- Handle
  {21eee112-16d2-4344-b46a-a73e2836511f}, !- Source Object
  11,                                     !- Outlet Port
  {8493cf37-9657-486e-b6c7-b84622f2feb0}, !- Target Object
  2;                                      !- Inlet Port

OS:PortList,
  {e10fba6a-7729-4656-bce7-d8c9876a0986}, !- Handle
  {21eee112-16d2-4344-b46a-a73e2836511f}, !- HVAC Component
  {f34411cd-8ca1-4cf7-857d-690114ff63a6}; !- Port 1

OS:PortList,
  {234dcc46-4d61-432b-b7a1-8e1cbae66b4f}, !- Handle
  {21eee112-16d2-4344-b46a-a73e2836511f}; !- HVAC Component

OS:PortList,
  {09f0ba5a-4167-4300-accd-8bc9c46f45b3}, !- Handle
  {21eee112-16d2-4344-b46a-a73e2836511f}, !- HVAC Component
  {80d59535-92ab-41a0-a1e0-67017090c054}; !- Port 1

OS:Sizing:Zone,
  {59f83b7c-9fa5-4d8d-9311-68cbc0cfcc0d}, !- Handle
  {21eee112-16d2-4344-b46a-a73e2836511f}, !- Zone or ZoneList Name
  SupplyAirTemperature,                   !- Zone Cooling Design Supply Air Temperature Input Method
  14,                                     !- Zone Cooling Design Supply Air Temperature {C}
  11.11,                                  !- Zone Cooling Design Supply Air Temperature Difference {deltaC}
  SupplyAirTemperature,                   !- Zone Heating Design Supply Air Temperature Input Method
  40,                                     !- Zone Heating Design Supply Air Temperature {C}
  11.11,                                  !- Zone Heating Design Supply Air Temperature Difference {deltaC}
  0.0085,                                 !- Zone Cooling Design Supply Air Humidity Ratio {kg-H2O/kg-air}
  0.008,                                  !- Zone Heating Design Supply Air Humidity Ratio {kg-H2O/kg-air}
  ,                                       !- Zone Heating Sizing Factor
  ,                                       !- Zone Cooling Sizing Factor
  DesignDay,                              !- Cooling Design Air Flow Method
  ,                                       !- Cooling Design Air Flow Rate {m3/s}
  ,                                       !- Cooling Minimum Air Flow per Zone Floor Area {m3/s-m2}
  ,                                       !- Cooling Minimum Air Flow {m3/s}
  ,                                       !- Cooling Minimum Air Flow Fraction
  DesignDay,                              !- Heating Design Air Flow Method
  ,                                       !- Heating Design Air Flow Rate {m3/s}
  ,                                       !- Heating Maximum Air Flow per Zone Floor Area {m3/s-m2}
  ,                                       !- Heating Maximum Air Flow {m3/s}
  ,                                       !- Heating Maximum Air Flow Fraction
  No,                                     !- Account for Dedicated Outdoor Air System
  NeutralSupplyAir,                       !- Dedicated Outdoor Air System Control Strategy
  autosize,                               !- Dedicated Outdoor Air Low Setpoint Temperature for Design {C}
  autosize,                               !- Dedicated Outdoor Air High Setpoint Temperature for Design {C}
  Sensible Load Only No Latent Load,      !- Zone Load Sizing Method
  HumidityRatioDifference,                !- Zone Latent Cooling Design Supply Air Humidity Ratio Input Method
  ,                                       !- Zone Dehumidification Design Supply Air Humidity Ratio {kgWater/kgDryAir}
  0.005,                                  !- Zone Cooling Design Supply Air Humidity Ratio Difference {kgWater/kgDryAir}
  HumidityRatioDifference,                !- Zone Latent Heating Design Supply Air Humidity Ratio Input Method
  ,                                       !- Zone Humidification Design Supply Air Humidity Ratio {kgWater/kgDryAir}
  0.005,                                  !- Zone Humidification Design Supply Air Humidity Ratio Difference {kgWater/kgDryAir}
  ,                                       !- Zone Humidistat Dehumidification Set Point Schedule Name
  ,                                       !- Zone Humidistat Humidification Set Point Schedule Name
  ,                                       !- Design Zone Air Distribution Effectiveness in Cooling Mode
  ,                                       !- Design Zone Air Distribution Effectiveness in Heating Mode
  ,                                       !- Design Zone Secondary Recirculation Fraction {dimensionless}
  ,                                       !- Design Minimum Zone Ventilation Efficiency {dimensionless}
  Coincident;                             !- Sizing Option

OS:ZoneHVAC:EquipmentList,
  {bc0db7ec-4cb2-499f-8b5c-d67019defcab}, !- Handle
  Zone HVAC Equipment List 1,             !- Name
  {21eee112-16d2-4344-b46a-a73e2836511f}, !- Thermal Zone
  ,                                       !- Load Distribution Scheme
  {28e4e385-ae64-4e0c-9f74-c3b5d69c8792}, !- Zone Equipment 1
  1,                                      !- Zone Equipment Cooling Sequence 1
  1,                                      !- Zone Equipment Heating or No-Load Sequence 1
  {02582c70-8d56-4547-bab3-159c07640a32}, !- Zone Equipment Sequential Cooling Fraction Schedule Name 1
  {418b0c36-d857-4066-b0df-ba0c31556572}; !- Zone Equipment Sequential Heating Fraction Schedule Name 1

OS:AdditionalProperties,
  {69841b33-e55e-4767-b5db-813b70ec69e1}, !- Handle
  {21eee112-16d2-4344-b46a-a73e2836511f}, !- Object Name
  ObjectType,                             !- Feature Name 1
  String,                                 !- Feature Data Type 1
  conditioned space;                      !- Feature Value 1

OS:Space,
  {3ae892ca-8d0a-47ec-aa63-faddf9be14ee}, !- Handle
  conditioned space 1,                    !- Name
  ,                                       !- Space Type Name
  ,                                       !- Default Construction Set Name
  ,                                       !- Default Schedule Set Name
  ,                                       !- Direction of Relative North {deg}
  ,                                       !- X Origin {m}
  ,                                       !- Y Origin {m}
  ,                                       !- Z Origin {m}
  ,                                       !- Building Story Name
  {21eee112-16d2-4344-b46a-a73e2836511f}, !- Thermal Zone Name
  ,                                       !- Part of Total Floor Area
  ,                                       !- Design Specification Outdoor Air Object Name
  ,                                       !- Building Unit Name
  346.03186535424;                        !- Volume {m3}

OS:Schedule:Ruleset,
  {4701f7aa-cf41-469c-9708-2ec4ba91781b}, !- Handle
  heating setpoint,                       !- Name
  {5284fefa-d5e9-459f-a043-de48d0010c18}, !- Schedule Type Limits Name
  {f75a921c-ec08-4ffe-9168-30e26cc4bb3d}; !- Default Day Schedule Name

OS:Schedule:Day,
  {f75a921c-ec08-4ffe-9168-30e26cc4bb3d}, !- Handle
  heating setpoint default day,           !- Name
  {5284fefa-d5e9-459f-a043-de48d0010c18}, !- Schedule Type Limits Name
  ,                                       !- Interpolate to Timestep
  24,                                     !- Hour 1
  0,                                      !- Minute 1
  0;                                      !- Value Until Time 1

OS:Schedule:Rule,
  {987a4e53-eef8-455e-9f48-9a31ed388ae8}, !- Handle
  heating setpoint allday rule,           !- Name
  {4701f7aa-cf41-469c-9708-2ec4ba91781b}, !- Schedule Ruleset Name
  0,                                      !- Rule Order
  {ddb8cf5c-af04-46bc-ac14-7188c1c1d779}, !- Day Schedule Name
  Yes,                                    !- Apply Sunday
  Yes,                                    !- Apply Monday
  Yes,                                    !- Apply Tuesday
  Yes,                                    !- Apply Wednesday
  Yes,                                    !- Apply Thursday
  Yes,                                    !- Apply Friday
  Yes,                                    !- Apply Saturday
  DateRange,                              !- Date Specification Type
  1,                                      !- Start Month
  1,                                      !- Start Day
  12,                                     !- End Month
  31;                                     !- End Day

OS:Schedule:Day,
  {ddb8cf5c-af04-46bc-ac14-7188c1c1d779}, !- Handle
  heating setpoint day,                   !- Name
  {5284fefa-d5e9-459f-a043-de48d0010c18}, !- Schedule Type Limits Name
  ,                                       !- Interpolate to Timestep
  24,                                     !- Hour 1
  0,                                      !- Minute 1
  20;                                     !- Value Until Time 1

OS:Schedule:Ruleset,
  {9c7a8bc1-34a3-4393-9d01-498abae14f58}, !- Handle
  cooling setpoint,                       !- Name
  {5284fefa-d5e9-459f-a043-de48d0010c18}, !- Schedule Type Limits Name
  {24df9639-a8b7-4039-9927-49a31fe78cf5}; !- Default Day Schedule Name

OS:Schedule:Day,
  {24df9639-a8b7-4039-9927-49a31fe78cf5}, !- Handle
  cooling setpoint default day,           !- Name
  {5284fefa-d5e9-459f-a043-de48d0010c18}, !- Schedule Type Limits Name
  ,                                       !- Interpolate to Timestep
  24,                                     !- Hour 1
  0,                                      !- Minute 1
  0;                                      !- Value Until Time 1

OS:Schedule:Rule,
  {b8aa0a65-eb1e-4304-84e8-ef76e44d1563}, !- Handle
  cooling setpoint allday rule,           !- Name
  {9c7a8bc1-34a3-4393-9d01-498abae14f58}, !- Schedule Ruleset Name
  0,                                      !- Rule Order
  {fd10ea8a-5aaf-41a6-92fb-740749c5c438}, !- Day Schedule Name
  Yes,                                    !- Apply Sunday
  Yes,                                    !- Apply Monday
  Yes,                                    !- Apply Tuesday
  Yes,                                    !- Apply Wednesday
  Yes,                                    !- Apply Thursday
  Yes,                                    !- Apply Friday
  Yes,                                    !- Apply Saturday
  DateRange,                              !- Date Specification Type
  1,                                      !- Start Month
  1,                                      !- Start Day
  12,                                     !- End Month
  31;                                     !- End Day

OS:Schedule:Day,
  {fd10ea8a-5aaf-41a6-92fb-740749c5c438}, !- Handle
  cooling setpoint day,                   !- Name
  {5284fefa-d5e9-459f-a043-de48d0010c18}, !- Schedule Type Limits Name
  ,                                       !- Interpolate to Timestep
  24,                                     !- Hour 1
  0,                                      !- Minute 1
  25.5555555555556;                       !- Value Until Time 1

OS:ThermostatSetpoint:DualSetpoint,
  {82eefdde-5d23-4f9e-8f32-d74dfcf479ed}, !- Handle
  conditioned space temperature setpoint, !- Name
  {4701f7aa-cf41-469c-9708-2ec4ba91781b}, !- Heating Setpoint Temperature Schedule Name
  {9c7a8bc1-34a3-4393-9d01-498abae14f58}, !- Cooling Setpoint Temperature Schedule Name
  0;                                      !- Temperature Difference Between Cutout And Setpoint {deltaC}

OS:ScheduleTypeLimits,
  {5284fefa-d5e9-459f-a043-de48d0010c18}, !- Handle
  Temperature,                            !- Name
  ,                                       !- Lower Limit Value
  ,                                       !- Upper Limit Value
  Continuous,                             !- Numeric Type
  Temperature;                            !- Unit Type

OS:Surface,
  {6696aa00-4b8e-4e2d-ba25-c0d942253e00}, !- Handle
  Roof1,                                  !- Name
  RoofCeiling,                            !- Surface Type
  {8527bf28-c0e7-42ac-bc35-be8dda6f2e8a}, !- Construction Name
  {3ae892ca-8d0a-47ec-aa63-faddf9be14ee}, !- Space Name
  Outdoors,                               !- Outside Boundary Condition
  ,                                       !- Outside Boundary Condition Object
  SunExposed,                             !- Sun Exposure
  WindExposed,                            !- Wind Exposure
  ,                                       !- View Factor to Ground
  ,                                       !- Number of Vertices
  -22.0836375774516, 27.3802233774516, 2.4384, !- X,Y,Z Vertex 1 {m}
  -22.0836375774516, 20.8754743017685, 5.69077453784155, !- X,Y,Z Vertex 2 {m}
  -14.8111070225484, 20.8754743017685, 5.69077453784155, !- X,Y,Z Vertex 3 {m}
  -14.8111070225484, 27.3802233774516, 2.4384; !- X,Y,Z Vertex 4 {m}

OS:AdditionalProperties,
  {94029a2f-a82d-4b3e-9b15-cf356cb084e0}, !- Handle
  {6696aa00-4b8e-4e2d-ba25-c0d942253e00}, !- Object Name
  Length,                                 !- Feature Name 1
  Double,                                 !- Feature Data Type 1
  23.860008382228202,                     !- Feature Value 1
  Width,                                  !- Feature Name 2
  Double,                                 !- Feature Data Type 2
  23.860008382228198,                     !- Feature Value 2
  Azimuth,                                !- Feature Name 3
  Integer,                                !- Feature Data Type 3
  0,                                      !- Feature Value 3
  Tilt,                                   !- Feature Name 4
  Double,                                 !- Feature Data Type 4
  0.5,                                    !- Feature Value 4
  SurfaceType,                            !- Feature Name 5
  String,                                 !- Feature Data Type 5
  Roof;                                   !- Feature Value 5

OS:Material,
  {3ea36614-9dd3-4d2d-b394-e4438280d036}, !- Handle
  asphalt or fiberglass shingles,         !- Name
  Rough,                                  !- Roughness
  0.00635,                                !- Thickness {m}
  0.162714,                               !- Conductivity {W/m-K}
  1121.4,                                 !- Density {kg/m3}
  1465.45,                                !- Specific Heat {J/kg-K}
  0.9,                                    !- Thermal Absorptance
  0.85,                                   !- Solar Absorptance
  0.85;                                   !- Visible Absorptance

OS:Material,
  {0604e8a1-dc58-4794-be19-592e2ddaf2b4}, !- Handle
  roof stud and cavity,                   !- Name
  Rough,                                  !- Roughness
  0.0889,                                 !- Thickness {m}
  0.468249472857624,                      !- Conductivity {W/m-K}
  50.32683,                               !- Density {kg/m3}
  1063.80987585548,                       !- Specific Heat {J/kg-K}
  0.9,                                    !- Thermal Absorptance
  0.7,                                    !- Solar Absorptance
  0.7;                                    !- Visible Absorptance

OS:Material,
  {c9118df4-bd96-4f24-b427-4ef2e5ef422c}, !- Handle
  gypsum board,                           !- Name
  Rough,                                  !- Roughness
  0.00254,                                !- Thickness {m}
  0.1602906,                              !- Conductivity {W/m-K}
  801,                                    !- Density {kg/m3}
  837.4,                                  !- Specific Heat {J/kg-K}
  0.9,                                    !- Thermal Absorptance
  0.6,                                    !- Solar Absorptance
  0.6;                                    !- Visible Absorptance

OS:Construction,
  {8527bf28-c0e7-42ac-bc35-be8dda6f2e8a}, !- Handle
  Roof1 construction,                     !- Name
  ,                                       !- Surface Rendering Name
  {3ea36614-9dd3-4d2d-b394-e4438280d036}, !- Layer 1
  {0604e8a1-dc58-4794-be19-592e2ddaf2b4}, !- Layer 2
  {c9118df4-bd96-4f24-b427-4ef2e5ef422c}; !- Layer 3

OS:Surface,
  {c709483f-8062-4111-b944-77a194116556}, !- Handle
  Roof2,                                  !- Name
  RoofCeiling,                            !- Surface Type
  {62d53543-8824-48c1-bd68-3136eda45c8f}, !- Construction Name
  {3ae892ca-8d0a-47ec-aa63-faddf9be14ee}, !- Space Name
  Outdoors,                               !- Outside Boundary Condition
  ,                                       !- Outside Boundary Condition Object
  SunExposed,                             !- Sun Exposure
  WindExposed,                            !- Wind Exposure
  ,                                       !- View Factor to Ground
  ,                                       !- Number of Vertices
  -20.1076928225484, -27.3802233774516, 2.4384, !- X,Y,Z Vertex 1 {m}
  -20.1076928225484, -20.8754743017685, 5.69077453784155, !- X,Y,Z Vertex 2 {m}
  -27.3802233774516, -20.8754743017685, 5.69077453784155, !- X,Y,Z Vertex 3 {m}
  -27.3802233774516, -27.3802233774516, 2.4384; !- X,Y,Z Vertex 4 {m}

OS:AdditionalProperties,
  {b3cce681-fcc2-43e1-a4f4-312bb30475a7}, !- Handle
  {c709483f-8062-4111-b944-77a194116556}, !- Object Name
  Length,                                 !- Feature Name 1
  Double,                                 !- Feature Data Type 1
  23.860008382228202,                     !- Feature Value 1
  Width,                                  !- Feature Name 2
  Double,                                 !- Feature Data Type 2
  23.860008382228198,                     !- Feature Value 2
  Azimuth,                                !- Feature Name 3
  Integer,                                !- Feature Data Type 3
  180,                                    !- Feature Value 3
  Tilt,                                   !- Feature Name 4
  Double,                                 !- Feature Data Type 4
  0.5,                                    !- Feature Value 4
  SurfaceType,                            !- Feature Name 5
  String,                                 !- Feature Data Type 5
  Roof;                                   !- Feature Value 5

OS:Construction,
  {62d53543-8824-48c1-bd68-3136eda45c8f}, !- Handle
  Roof2 construction,                     !- Name
  ,                                       !- Surface Rendering Name
  {3ea36614-9dd3-4d2d-b394-e4438280d036}, !- Layer 1
  {0604e8a1-dc58-4794-be19-592e2ddaf2b4}, !- Layer 2
  {c9118df4-bd96-4f24-b427-4ef2e5ef422c}; !- Layer 3

OS:Surface,
  {3bb1e1bb-d2cb-430a-8e85-a7dfab6e0c84}, !- Handle
  Wall1,                                  !- Name
  Wall,                                   !- Surface Type
  {5b2d193c-16ad-4908-8e1f-419c4b68a209}, !- Construction Name
  {3ae892ca-8d0a-47ec-aa63-faddf9be14ee}, !- Space Name
  Outdoors,                               !- Outside Boundary Condition
  ,                                       !- Outside Boundary Condition Object
  SunExposed,                             !- Sun Exposure
  WindExposed,                            !- Wind Exposure
  ,                                       !- View Factor to Ground
  ,                                       !- Number of Vertices
  -26.4511929774516, 27.3802233774516, 0, !- X,Y,Z Vertex 1 {m}
  -26.4511929774516, 27.3802233774516, 4.8768, !- X,Y,Z Vertex 2 {m}
  -23.0126679774516, 27.3802233774516, 4.8768, !- X,Y,Z Vertex 3 {m}
  -23.0126679774516, 27.3802233774516, 0; !- X,Y,Z Vertex 4 {m}

OS:AdditionalProperties,
  {9f1c0cc2-f207-45fe-a366-3b5960e61ae1}, !- Handle
  {3bb1e1bb-d2cb-430a-8e85-a7dfab6e0c84}, !- Object Name
  Length,                                 !- Feature Name 1
  Double,                                 !- Feature Data Type 1
  11.28125,                               !- Feature Value 1
  Azimuth,                                !- Feature Name 2
  Integer,                                !- Feature Data Type 2
  0,                                      !- Feature Value 2
  Tilt,                                   !- Feature Name 3
  Double,                                 !- Feature Data Type 3
  90,                                     !- Feature Value 3
  SurfaceType,                            !- Feature Name 4
  String,                                 !- Feature Data Type 4
  Wall;                                   !- Feature Value 4

OS:Material,
  {23f0c1ea-7cb7-4cff-94ea-3776f91aa72e}, !- Handle
  wood siding,                            !- Name
  Rough,                                  !- Roughness
  0.0254,                                 !- Thickness {m}
  0.1024175,                              !- Conductivity {W/m-K}
  544.68,                                 !- Density {kg/m3}
  1172.36,                                !- Specific Heat {J/kg-K}
  0.9,                                    !- Thermal Absorptance
  0.7,                                    !- Solar Absorptance
  0.7;                                    !- Visible Absorptance

OS:Material,
  {8a5ce100-bc60-4603-b09c-484cb7eaf12f}, !- Handle
  osb sheathing 0.5 in.,                  !- Name
  Rough,                                  !- Roughness
  0.0127,                                 !- Thickness {m}
  0.1154577,                              !- Conductivity {W/m-K}
  512.64,                                 !- Density {kg/m3}
  1214.23,                                !- Specific Heat {J/kg-K}
  0.9,                                    !- Thermal Absorptance
  0.7,                                    !- Solar Absorptance
  0.7;                                    !- Visible Absorptance

OS:Material,
  {e3585382-6367-4d45-a949-ea529e6f4c27}, !- Handle
  wall stud and cavity,                   !- Name
  Rough,                                  !- Roughness
  0.1397,                                 !- Thickness {m}
  0.0929021674204099,                     !- Conductivity {W/m-K}
  139.0536,                               !- Density {kg/m3}
  1170.23755760369,                       !- Specific Heat {J/kg-K}
  0.9,                                    !- Thermal Absorptance
  0.7,                                    !- Solar Absorptance