
OS:Version,
  {50467482-4489-4311-b25f-c77149baf13c}, !- Handle
  3.10.0;                                 !- Version Identifier

OS:SimulationControl,
  {c2f38604-ee1b-44d8-91ca-fa000743ed94}, !- Handle
  ,                                       !- Do Zone Sizing Calculation
  ,                                       !- Do System Sizing Calculation
  ,                                       !- Do Plant Sizing Calculation
  No;                                     !- Run Simulation for Sizing Periods

OS:Timestep,
  {c3972fc5-6886-4245-b350-191b1bf57f8e}, !- Handle
  1;                                      !- Number of Timesteps per Hour

OS:ShadowCalculation,
  {4455014f-b543-4967-921f-a3c84373e7fe}, !- Handle
  PolygonClipping,                        !- Shading Calculation Method
  ,                                       !- Shading Calculation Update Frequency Method
  20,                                     !- Shading Calculation Update Frequency
  200,                                    !- Maximum Figures in Shadow Overlap Calculations
  ,                                       !- Polygon Clipping Algorithm
  512,                                    !- Pixel Counting Resolution
  ,                                       !- Sky Diffuse Modeling Algorithm
  No,                                     !- Output External Shading Calculation Results
  No,                                     !- Disable Self-Shading Within Shading Zone Groups
  No;                                     !- Disable Self-Shading From Shading Zone Groups to Other Zones

OS:SurfaceConvectionAlgorithm:Outside,
  {d092cc8c-913d-4094-9ff5-082f1ac536a3}, !- Handle
  DOE-2;                                  !- Algorithm

OS:SurfaceConvectionAlgorithm:Inside,
  {51720c35-73bb-47ea-b679-e71a2175a8ed}, !- Handle
  TARP;                                   !- Algorithm

OS:ZoneCapacitanceMultiplier:ResearchSpecial,
  {0dbfc453-65c9-4dc4-9c2f-fff5e4a1f473}, !- Handle
  7,                                      !- Temperature Capacity Multiplier
  15,                                     !- Humidity Capacity Multiplier
  ;                                       !- Carbon Dioxide Capacity Multiplier

OS:ConvergenceLimits,
  {d6ccbac7-3a0a-4809-b7c4-bdc2e8a691f8}, !- Handle
  0;                                      !- Minimum System Timestep {minutes}

OS:RunPeriod,
  {48741cba-4095-4e65-9eef-2d2c8f358c2e}, !- Handle
  Run Period 1,                           !- Name
  1,                                      !- Begin Month
  1,                                      !- Begin Day of Month
  12,                                     !- End Month
  31,                                     !- End Day of Month
  ,                                       !- Use Weather File Holidays and Special Days
  ,                                       !- Use Weather File Daylight Saving Period
  ,                                       !- Apply Weekend Holiday Rule
  ,                                       !- Use Weather File Rain Indicators
  ,                                       !- Use Weather File Snow Indicators
  ;                                       !- Number of Times Runperiod to be Repeated

OS:PerformancePrecisionTradeoffs,
  {932228de-b992-4aaf-90a1-c266a00956fe}, !- Handle
  ,                                       !- Use Coil Direct Solutions
  CarrollMRT;                             !- Zone Radiant Exchange Algorithm

OS:WeatherFile,
  {75982ab5-9c9d-4be1-b568-43f9abcb7c7f}, !- Handle
  Buffalo Niagara Intl Ap,                !- City
  NY,                                     !- State Province Region
  USA,                                    !- Country
  TMY3,                                   !- Data Source
  725280,                                 !- WMO Number
  42.93,                                  !- Latitude {deg}
  -78.73,                                 !- Longitude {deg}
  -5,                                     !- Time Zone {hr}
  215,                                    !- Elevation {m}
  /Users/nmoore/github/urbanopt-example-geojson-project/example_project/weather/USA_NY_Buffalo-Greater.Buffalo.Intl.AP.725280_TMY3.epw, !- Url
  6B50E0FF,                               !- Checksum
  ,                                       !- Start Date Actual Year
  Sunday;                                 !- Start Day of Week

OS:YearDescription,
  {a9bea8f0-7ca7-4e94-baf1-a31970207d3b}, !- Handle
  2007,                                   !- Calendar Year
  ,                                       !- Day of Week for Start Day
  ;                                       !- Is Leap Year

OS:Site,
  {3d8efaca-b093-40f5-95e6-b2aa1f38480d}, !- Handle
  Buffalo Niagara Intl Ap_NY,             !- Name
  42.93,                                  !- Latitude {deg}
  -78.73,                                 !- Longitude {deg}
  -5,                                     !- Time Zone {hr}
  215,                                    !- Elevation {m}
  Suburbs,                                !- Terrain
  Yes;                                    !- Keep Site Location Information

OS:RunPeriodControl:DaylightSavingTime,
  {a9611fef-4f82-4217-a2d0-8d0d7937c956}, !- Handle
  Mar 12,                                 !- Start Date
  Nov 5;                                  !- End Date

OS:Site:GroundTemperature:Shallow,
  {3bbac798-ae23-4902-9557-527665c0b0cb}, !- Handle
  4.30207395723828,                       !- January Surface Ground Temperature {C}
  2.29327249652502,                       !- February Surface Ground Temperature {C}
  2.13240047156047,                       !- March Surface Ground Temperature {C}
  3.08567940719286,                       !- April Surface Ground Temperature {C}
  6.91256312497526,                       !- May Surface Ground Temperature {C}
  10.7216195949507,                       !- June Surface Ground Temperature {C}
  14.0238679822574,                       !- July Surface Ground Temperature {C}
  16.1157611184724,                       !- August Surface Ground Temperature {C}
  16.2934789303462,                       !- September Surface Ground Temperature {C}
  14.5920754632847,                       !- October Surface Ground Temperature {C}
  11.374036348653,                        !- November Surface Ground Temperature {C}
  7.68182621661674;                       !- December Surface Ground Temperature {C}

OS:ThermalZone,
  {0265754b-eea7-4919-b5a3-47e23a44415f}, !- Handle
  conditioned space,                      !- Name
  1,                                      !- Multiplier
  ,                                       !- Ceiling Height {m}
  692.06373070848,                        !- Volume {m3}
  ,                                       !- Floor Area {m2}
  ,                                       !- Zone Inside Convection Algorithm
  ,                                       !- Zone Outside Convection Algorithm
  ,                                       !- Zone Conditioning Equipment List Name
  {a5e346eb-112c-42b1-9d7c-2f45df4f8f38}, !- Zone Air Inlet Port List
  {47031ba3-c47f-4ffd-89dd-4be95b87f8b3}, !- Zone Air Exhaust Port List
  {c2ec2c1a-1bdf-433c-a1c3-ac65cd9e9d8c}, !- Zone Air Node Name
  {a5522ccf-213a-4671-8536-040d0b3bc67a}, !- Zone Return Air Port List
  ,                                       !- Primary Daylighting Control Name
  ,                                       !- Fraction of Zone Controlled by Primary Daylighting Control
  ,                                       !- Secondary Daylighting Control Name
  ,                                       !- Fraction of Zone Controlled by Secondary Daylighting Control
  ,                                       !- Illuminance Map Name
  ,                                       !- Group Rendering Name
  {7b63e882-91df-4b08-9bd5-29afce09f4ab}, !- Thermostat Name
  No;                                     !- Use Ideal Air Loads

OS:Node,
  {1f752f96-b141-40e7-87a7-80aed961e3fc}, !- Handle
  Node 1,                                 !- Name
  {c2ec2c1a-1bdf-433c-a1c3-ac65cd9e9d8c}, !- Inlet Port
  ;                                       !- Outlet Port

OS:Connection,
  {c2ec2c1a-1bdf-433c-a1c3-ac65cd9e9d8c}, !- Handle
  {0265754b-eea7-4919-b5a3-47e23a44415f}, !- Source Object
  11,                                     !- Outlet Port
  {1f752f96-b141-40e7-87a7-80aed961e3fc}, !- Target Object
  2;                                      !- Inlet Port

OS:PortList,
  {a5e346eb-112c-42b1-9d7c-2f45df4f8f38}, !- Handle
  {0265754b-eea7-4919-b5a3-47e23a44415f}, !- HVAC Component
  {2047a9ff-603c-4aec-b334-d28ec93b488a}; !- Port 1

OS:PortList,
  {47031ba3-c47f-4ffd-89dd-4be95b87f8b3}, !- Handle
  {0265754b-eea7-4919-b5a3-47e23a44415f}; !- HVAC Component

OS:PortList,
  {a5522ccf-213a-4671-8536-040d0b3bc67a}, !- Handle
  {0265754b-eea7-4919-b5a3-47e23a44415f}, !- HVAC Component
  {01479e18-c1e1-4e9c-aefa-af59a328f5fb}; !- Port 1

OS:Sizing:Zone,
  {ece660e2-9557-48c4-84ad-9df97a08e659}, !- Handle
  {0265754b-eea7-4919-b5a3-47e23a44415f}, !- Zone or ZoneList Name
  SupplyAirTemperature,                   !- Zone Cooling Design Supply Air Temperature Input Method
  14,                                     !- Zone Cooling Design Supply Air Temperature {C}
  11.11,                                  !- Zone Cooling Design Supply Air Temperature Difference {deltaC}
  SupplyAirTemperature,                   !- Zone Heating Design Supply Air Temperature Input Method
  40,                                     !- Zone Heating Design Supply Air Temperature {C}
  11.11,                                  !- Zone Heating Design Supply Air Temperature Difference {deltaC}
  0.0085,                                 !- Zone Cooling Design Supply Air Humidity Ratio {kg-H2O/kg-air}
  0.008,                                  !- Zone Heating Design Supply Air Humidity Ratio {kg-H2O/kg-air}
  ,                                       !- Zone Heating Sizing Factor
  ,                                       !- Zone Cooling Sizing Factor
  DesignDay,                              !- Cooling Design Air Flow Method
  ,                                       !- Cooling Design Air Flow Rate {m3/s}
  ,                                       !- Cooling Minimum Air Flow per Zone Floor Area {m3/s-m2}
  ,                                       !- Cooling Minimum Air Flow {m3/s}
  ,                                       !- Cooling Minimum Air Flow Fraction
  DesignDay,                              !- Heating Design Air Flow Method
  ,                                       !- Heating Design Air Flow Rate {m3/s}
  ,                                       !- Heating Maximum Air Flow per Zone Floor Area {m3/s-m2}
  ,                                       !- Heating Maximum Air Flow {m3/s}
  ,                                       !- Heating Maximum Air Flow Fraction
  No,                                     !- Account for Dedicated Outdoor Air System
  NeutralSupplyAir,                       !- Dedicated Outdoor Air System Control Strategy
  autosize,                               !- Dedicated Outdoor Air Low Setpoint Temperature for Design {C}
  autosize,                               !- Dedicated Outdoor Air High Setpoint Temperature for Design {C}
  Sensible Load Only No Latent Load,      !- Zone Load Sizing Method
  HumidityRatioDifference,                !- Zone Latent Cooling Design Supply Air Humidity Ratio Input Method
  ,                                       !- Zone Dehumidification Design Supply Air Humidity Ratio {kgWater/kgDryAir}
  0.005,                                  !- Zone Cooling Design Supply Air Humidity Ratio Difference {kgWater/kgDryAir}
  HumidityRatioDifference,                !- Zone Latent Heating Design Supply Air Humidity Ratio Input Method
  ,                                       !- Zone Humidification Design Supply Air Humidity Ratio {kgWater/kgDryAir}
  0.005,                                  !- Zone Humidification Design Supply Air Humidity Ratio Difference {kgWater/kgDryAir}
  ,                                       !- Zone Humidistat Dehumidification Set Point Schedule Name
  ,                                       !- Zone Humidistat Humidification Set Point Schedule Name
  ,                                       !- Design Zone Air Distribution Effectiveness in Cooling Mode
  ,                                       !- Design Zone Air Distribution Effectiveness in Heating Mode
  ,                                       !- Design Zone Secondary Recirculation Fraction {dimensionless}
  ,                                       !- Design Minimum Zone Ventilation Efficiency {dimensionless}
  Coincident;                             !- Sizing Option

OS:ZoneHVAC:EquipmentList,
  {5bfcc46c-fd41-46fc-b20f-1c518ae16ad2}, !- Handle
  Zone HVAC Equipment List 1,             !- Name
  {0265754b-eea7-4919-b5a3-47e23a44415f}, !- Thermal Zone
  ,                                       !- Load Distribution Scheme
  {423f4f69-f1eb-411c-9dfe-adb84b8efbc4}, !- Zone Equipment 1
  1,                                      !- Zone Equipment Cooling Sequence 1
  1,                                      !- Zone Equipment Heating or No-Load Sequence 1
  {9bd87c25-7e98-477c-8788-449dcbd064ff}, !- Zone Equipment Sequential Cooling Fraction Schedule Name 1
  {ef99737f-7fed-4e17-a712-5d1ea970ecfe}; !- Zone Equipment Sequential Heating Fraction Schedule Name 1

OS:AdditionalProperties,
  {3cc16228-6668-4f19-8c78-053dc212b3fa}, !- Handle
  {0265754b-eea7-4919-b5a3-47e23a44415f}, !- Object Name
  ObjectType,                             !- Feature Name 1
  String,                                 !- Feature Data Type 1
  conditioned space;                      !- Feature Value 1

OS:Space,
  {460b7e46-8ea4-4788-b078-c9e0c8433304}, !- Handle
  conditioned space 1,                    !- Name
  ,                                       !- Space Type Name
  ,                                       !- Default Construction Set Name
  ,                                       !- Default Schedule Set Name
  ,                                       !- Direction of Relative North {deg}
  ,                                       !- X Origin {m}
  ,                                       !- Y Origin {m}
  ,                                       !- Z Origin {m}
  ,                                       !- Building Story Name
  {0265754b-eea7-4919-b5a3-47e23a44415f}, !- Thermal Zone Name
  ,                                       !- Part of Total Floor Area
  ,                                       !- Design Specification Outdoor Air Object Name
  ,                                       !- Building Unit Name
  692.06373070848;                        !- Volume {m3}

OS:Schedule:Ruleset,
  {6b8e58d3-6b4f-4bc4-ad42-0e94300f0d78}, !- Handle
  heating setpoint,                       !- Name
  {34dfb9e2-0383-4cef-977b-2f8a3cd3e865}, !- Schedule Type Limits Name
  {c95f1717-953e-41c8-9e14-bb7c2108544c}; !- Default Day Schedule Name

OS:Schedule:Day,
  {c95f1717-953e-41c8-9e14-bb7c2108544c}, !- Handle
  heating setpoint default day,           !- Name
  {34dfb9e2-0383-4cef-977b-2f8a3cd3e865}, !- Schedule Type Limits Name
  ,                                       !- Interpolate to Timestep
  24,                                     !- Hour 1
  0,                                      !- Minute 1
  0;                                      !- Value Until Time 1

OS:Schedule:Rule,
  {ccec0f47-b45e-4d65-b86e-27a3197523f5}, !- Handle
  heating setpoint allday rule,           !- Name
  {6b8e58d3-6b4f-4bc4-ad42-0e94300f0d78}, !- Schedule Ruleset Name
  0,                                      !- Rule Order
  {3d262ce2-d6c3-4028-b007-2183d0e948a4}, !- Day Schedule Name
  Yes,                                    !- Apply Sunday
  Yes,                                    !- Apply Monday
  Yes,                                    !- Apply Tuesday
  Yes,                                    !- Apply Wednesday
  Yes,                                    !- Apply Thursday
  Yes,                                    !- Apply Friday
  Yes,                                    !- Apply Saturday
  DateRange,                              !- Date Specification Type
  1,                                      !- Start Month
  1,                                      !- Start Day
  12,                                     !- End Month
  31;                                     !- End Day

OS:Schedule:Day,
  {3d262ce2-d6c3-4028-b007-2183d0e948a4}, !- Handle
  heating setpoint day,                   !- Name
  {34dfb9e2-0383-4cef-977b-2f8a3cd3e865}, !- Schedule Type Limits Name
  ,                                       !- Interpolate to Timestep
  24,                                     !- Hour 1
  0,                                      !- Minute 1
  20;                                     !- Value Until Time 1

OS:Schedule:Ruleset,
  {c4fbfa82-0121-4334-8b33-eca40b51814b}, !- Handle
  cooling setpoint,                       !- Name
  {34dfb9e2-0383-4cef-977b-2f8a3cd3e865}, !- Schedule Type Limits Name
  {6b0d7fbb-c8b5-474d-89b7-338479a95de9}; !- Default Day Schedule Name

OS:Schedule:Day,
  {6b0d7fbb-c8b5-474d-89b7-338479a95de9}, !- Handle
  cooling setpoint default day,           !- Name
  {34dfb9e2-0383-4cef-977b-2f8a3cd3e865}, !- Schedule Type Limits Name
  ,                                       !- Interpolate to Timestep
  24,                                     !- Hour 1
  0,                                      !- Minute 1
  0;                                      !- Value Until Time 1

OS:Schedule:Rule,
  {7f02f096-c983-42d1-b206-18791539cb89}, !- Handle
  cooling setpoint allday rule,           !- Name
  {c4fbfa82-0121-4334-8b33-eca40b51814b}, !- Schedule Ruleset Name
  0,                                      !- Rule Order
  {4213dfd9-912c-4342-a6e9-522089a2fc66}, !- Day Schedule Name
  Yes,                                    !- Apply Sunday
  Yes,                                    !- Apply Monday
  Yes,                                    !- Apply Tuesday
  Yes,                                    !- Apply Wednesday
  Yes,                                    !- Apply Thursday
  Yes,                                    !- Apply Friday
  Yes,                                    !- Apply Saturday
  DateRange,                              !- Date Specification Type
  1,                                      !- Start Month
  1,                                      !- Start Day
  12,                                     !- End Month
  31;                                     !- End Day

OS:Schedule:Day,
  {4213dfd9-912c-4342-a6e9-522089a2fc66}, !- Handle
  cooling setpoint day,                   !- Name
  {34dfb9e2-0383-4cef-977b-2f8a3cd3e865}, !- Schedule Type Limits Name
  ,                                       !- Interpolate to Timestep
  24,                                     !- Hour 1
  0,                                      !- Minute 1
  25.5555555555556;                       !- Value Until Time 1

OS:ThermostatSetpoint:DualSetpoint,
  {7b63e882-91df-4b08-9bd5-29afce09f4ab}, !- Handle
  conditioned space temperature setpoint, !- Name
  {6b8e58d3-6b4f-4bc4-ad42-0e94300f0d78}, !- Heating Setpoint Temperature Schedule Name
  {c4fbfa82-0121-4334-8b33-eca40b51814b}, !- Cooling Setpoint Temperature Schedule Name
  0;                                      !- Temperature Difference Between Cutout And Setpoint {deltaC}

OS:ScheduleTypeLimits,
  {34dfb9e2-0383-4cef-977b-2f8a3cd3e865}, !- Handle
  Temperature,                            !- Name
  ,                                       !- Lower Limit Value
  ,                                       !- Upper Limit Value
  Continuous,                             !- Numeric Type
  Temperature;                            !- Unit Type

OS:Surface,
  {48268462-ff35-4dcc-bec0-a67948a62cc8}, !- Handle
  Roof1,                                  !- Name
  RoofCeiling,                            !- Surface Type
  {029adf19-48c1-4340-b970-0fc2a99e514a}, !- Construction Name
  {94df161f-87a8-40a8-8253-c8295563fd4f}, !- Space Name
  Outdoors,                               !- Outside Boundary Condition
  ,                                       !- Outside Boundary Condition Object
  SunExposed,                             !- Sun Exposure
  WindExposed,                            !- Wind Exposure
  ,                                       !- View Factor to Ground
  ,                                       !- Number of Vertices
  9.8030170292795, 22.3990406761293, 3.048, !- X,Y,Z Vertex 1 {m}
  9.8030170292795, 11.1328146279089, 8.6811130241102, !- X,Y,Z Vertex 2 {m}
  22.3990406761293, 11.1328146279089, 8.6811130241102, !- X,Y,Z Vertex 3 {m}
  22.3990406761293, 22.3990406761293, 3.048; !- X,Y,Z Vertex 4 {m}

OS:AdditionalProperties,
  {3f56976d-bd82-4842-a050-55dd51e7a0c2}, !- Handle
  {48268462-ff35-4dcc-bec0-a67948a62cc8}, !- Object Name
  Length,                                 !- Feature Name 1
  Double,                                 !- Feature Data Type 1
  41.325536899113608,                     !- Feature Value 1
  Width,                                  !- Feature Name 2
  Double,                                 !- Feature Data Type 2
  41.325536899113601,                     !- Feature Value 2
  Azimuth,                                !- Feature Name 3
  Integer,                                !- Feature Data Type 3
  0,                                      !- Feature Value 3
  Tilt,                                   !- Feature Name 4
  Double,                                 !- Feature Data Type 4
  0.5,                                    !- Feature Value 4
  SurfaceType,                            !- Feature Name 5
  String,                                 !- Feature Data Type 5
  Roof;                                   !- Feature Value 5

OS:ThermalZone,
  {8a552e3a-a6ca-40d6-9104-064486e4c44e}, !- Handle
  attic - vented,                         !- Name
  1,                                      !- Multiplier
  ,                                       !- Ceiling Height {m}
  356.390921899745,                       !- Volume {m3}
  ,                                       !- Floor Area {m2}
  ,                                       !- Zone Inside Convection Algorithm
  ,                                       !- Zone Outside Convection Algorithm
  ,                                       !- Zone Conditioning Equipment List Name
  {82a8a54f-f938-4e17-b748-07873e665dbc}, !- Zone Air Inlet Port List
  {258d7cc3-ea64-4515-80a5-cdc769be5f23}, !- Zone Air Exhaust Port List
  {5f560abf-4442-4844-a56a-5938463671e1}, !- Zone Air Node Name
  {ee04d9c7-0713-416f-89e8-95d036619408}, !- Zone Return Air Port List
  ,                                       !- Primary Daylighting Control Name
  ,                                       !- Fraction of Zone Controlled by Primary Daylighting Control
  ,                                       !- Secondary Daylighting Control Name
  ,                                       !- Fraction of Zone Controlled by Secondary Daylighting Control
  ,                                       !- Illuminance Map Name
  ,                                       !- Group Rendering Name
  ,                                       !- Thermostat Name
  No;                                     !- Use Ideal Air Loads

OS:Node,
  {3378e67d-09fc-4c1e-80d1-3f593dc2f7f9}, !- Handle
  Node 2,                                 !- Name
  {5f560abf-4442-4844-a56a-5938463671e1}, !- Inlet Port
  ;                                       !- Outlet Port

OS:Connection,
  {5f560abf-4442-4844-a56a-5938463671e1}, !- Handle
  {8a552e3a-a6ca-40d6-9104-064486e4c44e}, !- Source Object
  11,                                     !- Outlet Port
  {3378e67d-09fc-4c1e-80d1-3f593dc2f7f9}, !- Target Object
  2;                                      !- Inlet Port

OS:PortList,
  {82a8a54f-f938-4e17-b748-07873e665dbc}, !- Handle
  {8a552e3a-a6ca-40d6-9104-064486e4c44e}; !- HVAC Component

OS:PortList,
  {258d7cc3-ea64-4515-80a5-cdc769be5f23}, !- Handle
  {8a552e3a-a6ca-40d6-9104-064486e4c44e}; !- HVAC Component

OS:PortList,
  {ee04d9c7-0713-416f-89e8-95d036619408}, !- Handle
  {8a552e3a-a6ca-40d6-9104-064486e4c44e}; !- HVAC Component

OS:Sizing:Zone,
  {105432e8-eda0-4660-bcfd-c1d1727e5703}, !- Handle
  {8a552e3a-a6ca-40d6-9104-064486e4c44e}, !- Zone or ZoneList Name
  SupplyAirTemperature,                   !- Zone Cooling Design Supply Air Temperature Input Method
  14,                                     !- Zone Cooling Design Supply Air Temperature {C}
  11.11,                                  !- Zone Cooling Design Supply Air Temperature Difference {deltaC}
  SupplyAirTemperature,                   !- Zone Heating Design Supply Air Temperature Input Method
  40,                                     !- Zone Heating Design Supply Air Temperature {C}
  11.11,                                  !- Zone Heating Design Supply Air Temperature Difference {deltaC}
  0.0085,                                 !- Zone Cooling Design Supply Air Humidity Ratio {kg-H2O/kg-air}
  0.008,                                  !- Zone Heating Design Supply Air Humidity Ratio {kg-H2O/kg-air}
  ,                                       !- Zone Heating Sizing Factor
  ,                                       !- Zone Cooling Sizing Factor
  DesignDay,                              !- Cooling Design Air Flow Method
  ,                                       !- Cooling Design Air Flow Rate {m3/s}
  ,                                       !- Cooling Minimum Air Flow per Zone Floor Area {m3/s-m2}
  ,                                       !- Cooling Minimum Air Flow {m3/s}
  ,                                       !- Cooling Minimum Air Flow Fraction
  DesignDay,                              !- Heating Design Air Flow Method
  ,                                       !- Heating Design Air Flow Rate {m3/s}
  ,                                       !- Heating Maximum Air Flow per Zone Floor Area {m3/s-m2}
  ,                                       !- Heating Maximum Air Flow {m3/s}
  ,                                       !- Heating Maximum Air Flow Fraction
  No,                                     !- Account for Dedicated Outdoor Air System
  NeutralSupplyAir,                       !- Dedicated Outdoor Air System Control Strategy
  autosize,                               !- Dedicated Outdoor Air Low Setpoint Temperature for Design {C}
  autosize,                               !- Dedicated Outdoor Air High Setpoint Temperature for Design {C}
  Sensible Load Only No Latent Load,      !- Zone Load Sizing Method
  HumidityRatioDifference,                !- Zone Latent Cooling Design Supply Air Humidity Ratio Input Method
  ,                                       !- Zone Dehumidification Design Supply Air Humidity Ratio {kgWater/kgDryAir}
  0.005,                                  !- Zone Cooling Design Supply Air Humidity Ratio Difference {kgWater/kgDryAir}
  HumidityRatioDifference,                !- Zone Latent Heating Design Supply Air Humidity Ratio Input Method
  ,                                       !- Zone Humidification Design Supply Air Humidity Ratio {kgWater/kgDryAir}
  0.005,                                  !- Zone Humidification Design Supply Air Humidity Ratio Difference {kgWater/kgDryAir}
  ,                                       !- Zone Humidistat Dehumidification Set Point Schedule Name
  ,                                       !- Zone Humidistat Humidification Set Point Schedule Name
  ,                                       !- Design Zone Air Distribution Effectiveness in Cooling Mode
  ,                                       !- Design Zone Air Distribution Effectiveness in Heating Mode
  ,                                       !- Design Zone Secondary Recirculation Fraction {dimensionless}
  ,                                       !- Design Minimum Zone Ventilation Efficiency {dimensionless}
  Coincident;                             !- Sizing Option

OS:ZoneHVAC:EquipmentList,
  {40a8f9ea-54c6-4cdb-9670-9a344968e564}, !- Handle
  Zone HVAC Equipment List 2,             !- Name
  {8a552e3a-a6ca-40d6-9104-064486e4c44e}; !- Thermal Zone

OS:AdditionalProperties,
  {a7e45583-e861-4c7a-860d-540d86b9dec5}, !- Handle
  {8a552e3a-a6ca-40d6-9104-064486e4c44e}, !- Object Name
  ObjectType,                             !- Feature Name 1
  String,                                 !- Feature Data Type 1
  attic - vented;                         !- Feature Value 1

OS:Space,
  {94df161f-87a8-40a8-8253-c8295563fd4f}, !- Handle
  attic - vented 1,                       !- Name
  ,                                       !- Space Type Name
  ,                                       !- Default Construction Set Name
  ,                                       !- Default Schedule Set Name
  ,                                       !- Direction of Relative North {deg}
  ,                                       !- X Origin {m}
  ,                                       !- Y Origin {m}
  ,                                       !- Z Origin {m}
  ,                                       !- Building Story Name
  {8a552e3a-a6ca-40d6-9104-064486e4c44e}, !- Thermal Zone Name
  ,                                       !- Part of Total Floor Area
  ,                                       !- Design Specification Outdoor Air Object Name
  ,                                       !- Building Unit Name
  356.390921899745;                       !- Volume {m3}

OS:Material,
  {92548a17-db89-45bc-8f54-a0880f0fb132}, !- Handle
  asphalt or fiberglass shingles,         !- Name
  Rough,                                  !- Roughness
  0.00635,                                !- Thickness {m}
  0.162714,                               !- Conductivity {W/m-K}
  1121.4,                                 !- Density {kg/m3}
  1465.45,                                !- Specific Heat {J/kg-K}
  0.9,                                    !- Thermal Absorptance
  0.85,                                   !- Solar Absorptance