
OS:Version,
  {40d0ee39-bb49-47f2-a5b4-01b73539d9e5}, !- Handle
  3.9.0;                                  !- Version Identifier

OS:SimulationControl,
  {fb70320d-b0a8-467e-9d3f-f11798208e1b}, !- Handle
  ,                                       !- Do Zone Sizing Calculation
  ,                                       !- Do System Sizing Calculation
  ,                                       !- Do Plant Sizing Calculation
  No;                                     !- Run Simulation for Sizing Periods

OS:Timestep,
  {8871faf7-5f6c-439d-b723-9e312f985b5a}, !- Handle
  1;                                      !- Number of Timesteps per Hour

OS:ShadowCalculation,
  {ddc25047-9489-49a4-ba51-6d0a0a0693fa}, !- Handle
  PolygonClipping,                        !- Shading Calculation Method
  ,                                       !- Shading Calculation Update Frequency Method
  20,                                     !- Shading Calculation Update Frequency
  200,                                    !- Maximum Figures in Shadow Overlap Calculations
  ,                                       !- Polygon Clipping Algorithm
  512,                                    !- Pixel Counting Resolution
  ,                                       !- Sky Diffuse Modeling Algorithm
  No,                                     !- Output External Shading Calculation Results
  No,                                     !- Disable Self-Shading Within Shading Zone Groups
  No;                                     !- Disable Self-Shading From Shading Zone Groups to Other Zones

OS:SurfaceConvectionAlgorithm:Outside,
  {2489cf13-62ac-4286-a95e-6d91e683d407}, !- Handle
  DOE-2;                                  !- Algorithm

OS:SurfaceConvectionAlgorithm:Inside,
  {5749ec5c-eacd-4661-a921-4b935b35f8bf}, !- Handle
  TARP;                                   !- Algorithm

OS:ZoneCapacitanceMultiplier:ResearchSpecial,
  {c68edd9c-59e5-49c0-babc-1adf5796261a}, !- Handle
  7,                                      !- Temperature Capacity Multiplier
  15,                                     !- Humidity Capacity Multiplier
  ;                                       !- Carbon Dioxide Capacity Multiplier

OS:ConvergenceLimits,
  {ed35e7b3-7a2f-4c2e-951e-6d06d5615b59}, !- Handle
  0;                                      !- Minimum System Timestep {minutes}

OS:RunPeriod,
  {75470504-d58f-4669-8203-2e2e415fd335}, !- Handle
  Run Period 1,                           !- Name
  1,                                      !- Begin Month
  1,                                      !- Begin Day of Month
  12,                                     !- End Month
  31,                                     !- End Day of Month
  ,                                       !- Use Weather File Holidays and Special Days
  ,                                       !- Use Weather File Daylight Saving Period
  ,                                       !- Apply Weekend Holiday Rule
  ,                                       !- Use Weather File Rain Indicators
  ,                                       !- Use Weather File Snow Indicators
  ;                                       !- Number of Times Runperiod to be Repeated

OS:PerformancePrecisionTradeoffs,
  {b433feb9-f031-4216-a4a0-9a36c4153381}, !- Handle
  ,                                       !- Use Coil Direct Solutions
  CarrollMRT;                             !- Zone Radiant Exchange Algorithm

OS:WeatherFile,
  {8ccf8724-08d2-43f1-8f06-195cc62b6429}, !- Handle
  Buffalo Niagara Intl Ap,                !- City
  NY,                                     !- State Province Region
  USA,                                    !- Country
  TMY3,                                   !- Data Source
  725280,                                 !- WMO Number
  42.93,                                  !- Latitude {deg}
  -78.73,                                 !- Longitude {deg}
  -5,                                     !- Time Zone {hr}
  215,                                    !- Elevation {m}
  /Users/nmoore/github/urbanopt-example-geojson-project/example_project/weather/USA_NY_Buffalo-Greater.Buffalo.Intl.AP.725280_TMY3.epw, !- Url
  6B50E0FF,                               !- Checksum
  ,                                       !- Start Date Actual Year
  Sunday;                                 !- Start Day of Week

OS:YearDescription,
  {f28338f2-cb8c-484f-bbab-82ad3a90a0bf}, !- Handle
  2007,                                   !- Calendar Year
  ,                                       !- Day of Week for Start Day
  ;                                       !- Is Leap Year

OS:Site,
  {894ebeb1-4596-498a-ae35-6d74cbc89d8c}, !- Handle
  Buffalo Niagara Intl Ap_NY,             !- Name
  42.93,                                  !- Latitude {deg}
  -78.73,                                 !- Longitude {deg}
  -5,                                     !- Time Zone {hr}
  215,                                    !- Elevation {m}
  Suburbs,                                !- Terrain
  Yes;                                    !- Keep Site Location Information

OS:RunPeriodControl:DaylightSavingTime,
  {18190c62-e774-42a4-8e3a-d49f0a0c42a4}, !- Handle
  Mar 12,                                 !- Start Date
  Nov 5;                                  !- End Date

OS:Site:GroundTemperature:Shallow,
  {664eeb64-b76b-4f49-b2fe-61d89b631a3e}, !- Handle
  4.30207395723828,                       !- January Surface Ground Temperature {C}
  2.29327249652502,                       !- February Surface Ground Temperature {C}
  2.13240047156047,                       !- March Surface Ground Temperature {C}
  3.08567940719286,                       !- April Surface Ground Temperature {C}
  6.91256312497526,                       !- May Surface Ground Temperature {C}
  10.7216195949507,                       !- June Surface Ground Temperature {C}
  14.0238679822574,                       !- July Surface Ground Temperature {C}
  16.1157611184724,                       !- August Surface Ground Temperature {C}
  16.2934789303462,                       !- September Surface Ground Temperature {C}
  14.5920754632847,                       !- October Surface Ground Temperature {C}
  11.374036348653,                        !- November Surface Ground Temperature {C}
  7.68182621661674;                       !- December Surface Ground Temperature {C}

OS:ThermalZone,
  {b2b29823-a7f4-49ff-9241-4fd84778e0b8}, !- Handle
  conditioned space,                      !- Name
  1,                                      !- Multiplier
  ,                                       !- Ceiling Height {m}
  692.06373070848,                        !- Volume {m3}
  ,                                       !- Floor Area {m2}
  ,                                       !- Zone Inside Convection Algorithm
  ,                                       !- Zone Outside Convection Algorithm
  ,                                       !- Zone Conditioning Equipment List Name
  {c8105f3a-b13b-4461-91f8-9b3a61f25f44}, !- Zone Air Inlet Port List
  {38a0217a-a5ba-4014-a9f3-42764db6bec0}, !- Zone Air Exhaust Port List
  {a6daa801-66fe-4ba3-bd1f-f86debc51b39}, !- Zone Air Node Name
  {5bde8c63-8a5f-4c1f-9561-ccff9ecb7e68}, !- Zone Return Air Port List
  ,                                       !- Primary Daylighting Control Name
  ,                                       !- Fraction of Zone Controlled by Primary Daylighting Control
  ,                                       !- Secondary Daylighting Control Name
  ,                                       !- Fraction of Zone Controlled by Secondary Daylighting Control
  ,                                       !- Illuminance Map Name
  ,                                       !- Group Rendering Name
  {bfee5e88-6b5c-448c-a1c1-2e6372f0764b}, !- Thermostat Name
  No;                                     !- Use Ideal Air Loads

OS:Node,
  {7374d997-bb83-43ad-bff4-b8dfe4a957cb}, !- Handle
  Node 1,                                 !- Name
  {a6daa801-66fe-4ba3-bd1f-f86debc51b39}, !- Inlet Port
  ;                                       !- Outlet Port

OS:Connection,
  {a6daa801-66fe-4ba3-bd1f-f86debc51b39}, !- Handle
  {b2b29823-a7f4-49ff-9241-4fd84778e0b8}, !- Source Object
  11,                                     !- Outlet Port
  {7374d997-bb83-43ad-bff4-b8dfe4a957cb}, !- Target Object
  2;                                      !- Inlet Port

OS:PortList,
  {c8105f3a-b13b-4461-91f8-9b3a61f25f44}, !- Handle
  {b2b29823-a7f4-49ff-9241-4fd84778e0b8}, !- HVAC Component
  {eae3cb7b-dc09-4602-902b-3f1f7423964a}; !- Port 1

OS:PortList,
  {38a0217a-a5ba-4014-a9f3-42764db6bec0}, !- Handle
  {b2b29823-a7f4-49ff-9241-4fd84778e0b8}; !- HVAC Component

OS:PortList,
  {5bde8c63-8a5f-4c1f-9561-ccff9ecb7e68}, !- Handle
  {b2b29823-a7f4-49ff-9241-4fd84778e0b8}, !- HVAC Component
  {2d621662-f180-4470-a04d-3ff68b01d5d4}; !- Port 1

OS:Sizing:Zone,
  {aa3061e0-eaa9-484d-ac4b-13d161c8591c}, !- Handle
  {b2b29823-a7f4-49ff-9241-4fd84778e0b8}, !- Zone or ZoneList Name
  SupplyAirTemperature,                   !- Zone Cooling Design Supply Air Temperature Input Method
  14,                                     !- Zone Cooling Design Supply Air Temperature {C}
  11.11,                                  !- Zone Cooling Design Supply Air Temperature Difference {deltaC}
  SupplyAirTemperature,                   !- Zone Heating Design Supply Air Temperature Input Method
  40,                                     !- Zone Heating Design Supply Air Temperature {C}
  11.11,                                  !- Zone Heating Design Supply Air Temperature Difference {deltaC}
  0.0085,                                 !- Zone Cooling Design Supply Air Humidity Ratio {kg-H2O/kg-air}
  0.008,                                  !- Zone Heating Design Supply Air Humidity Ratio {kg-H2O/kg-air}
  ,                                       !- Zone Heating Sizing Factor
  ,                                       !- Zone Cooling Sizing Factor
  DesignDay,                              !- Cooling Design Air Flow Method
  ,                                       !- Cooling Design Air Flow Rate {m3/s}
  ,                                       !- Cooling Minimum Air Flow per Zone Floor Area {m3/s-m2}
  ,                                       !- Cooling Minimum Air Flow {m3/s}
  ,                                       !- Cooling Minimum Air Flow Fraction
  DesignDay,                              !- Heating Design Air Flow Method
  ,                                       !- Heating Design Air Flow Rate {m3/s}
  ,                                       !- Heating Maximum Air Flow per Zone Floor Area {m3/s-m2}
  ,                                       !- Heating Maximum Air Flow {m3/s}
  ,                                       !- Heating Maximum Air Flow Fraction
  No,                                     !- Account for Dedicated Outdoor Air System
  NeutralSupplyAir,                       !- Dedicated Outdoor Air System Control Strategy
  autosize,                               !- Dedicated Outdoor Air Low Setpoint Temperature for Design {C}
  autosize,                               !- Dedicated Outdoor Air High Setpoint Temperature for Design {C}
  Sensible Load Only No Latent Load,      !- Zone Load Sizing Method
  HumidityRatioDifference,                !- Zone Latent Cooling Design Supply Air Humidity Ratio Input Method
  ,                                       !- Zone Dehumidification Design Supply Air Humidity Ratio {kgWater/kgDryAir}
  0.005,                                  !- Zone Cooling Design Supply Air Humidity Ratio Difference {kgWater/kgDryAir}
  HumidityRatioDifference,                !- Zone Latent Heating Design Supply Air Humidity Ratio Input Method
  ,                                       !- Zone Humidification Design Supply Air Humidity Ratio {kgWater/kgDryAir}
  0.005,                                  !- Zone Humidification Design Supply Air Humidity Ratio Difference {kgWater/kgDryAir}
  ,                                       !- Zone Humidistat Dehumidification Set Point Schedule Name
  ,                                       !- Zone Humidistat Humidification Set Point Schedule Name
  ,                                       !- Design Zone Air Distribution Effectiveness in Cooling Mode
  ,                                       !- Design Zone Air Distribution Effectiveness in Heating Mode
  ,                                       !- Design Zone Secondary Recirculation Fraction {dimensionless}
  ,                                       !- Design Minimum Zone Ventilation Efficiency {dimensionless}
  Coincident;                             !- Sizing Option

OS:ZoneHVAC:EquipmentList,
  {2b7d3b42-d9a5-4e84-b4cf-de1c4dba66ef}, !- Handle
  Zone HVAC Equipment List 1,             !- Name
  {b2b29823-a7f4-49ff-9241-4fd84778e0b8}, !- Thermal Zone
  ,                                       !- Load Distribution Scheme
  {a3b9956c-bc7b-4e97-99df-40f41e31479a}, !- Zone Equipment 1
  1,                                      !- Zone Equipment Cooling Sequence 1
  1,                                      !- Zone Equipment Heating or No-Load Sequence 1
  {9edbf5d4-695f-4fc6-924b-d0448e632735}, !- Zone Equipment Sequential Cooling Fraction Schedule Name 1
  {44a42720-b2c3-4ec7-83d7-45f41043f143}; !- Zone Equipment Sequential Heating Fraction Schedule Name 1

OS:AdditionalProperties,
  {81423d8f-5d3b-4efc-b8d7-a554396afddf}, !- Handle
  {b2b29823-a7f4-49ff-9241-4fd84778e0b8}, !- Object Name
  ObjectType,                             !- Feature Name 1
  String,                                 !- Feature Data Type 1
  conditioned space;                      !- Feature Value 1

OS:Space,
  {93304aa8-24a4-4c64-85de-34a77f99fc36}, !- Handle
  conditioned space 1,                    !- Name
  ,                                       !- Space Type Name
  ,                                       !- Default Construction Set Name
  ,                                       !- Default Schedule Set Name
  ,                                       !- Direction of Relative North {deg}
  ,                                       !- X Origin {m}
  ,                                       !- Y Origin {m}
  ,                                       !- Z Origin {m}
  ,                                       !- Building Story Name
  {b2b29823-a7f4-49ff-9241-4fd84778e0b8}, !- Thermal Zone Name
  ,                                       !- Part of Total Floor Area
  ,                                       !- Design Specification Outdoor Air Object Name
  ,                                       !- Building Unit Name
  692.06373070848;                        !- Volume {m3}

OS:Schedule:Ruleset,
  {58602048-8da6-4aaa-a520-c1611d0fb35f}, !- Handle
  heating setpoint,                       !- Name
  {9a77c10e-de8b-4227-a102-bd2324c471d7}, !- Schedule Type Limits Name
  {968ca056-f7f2-44b8-8ab8-14d85828f20e}; !- Default Day Schedule Name

OS:Schedule:Day,
  {968ca056-f7f2-44b8-8ab8-14d85828f20e}, !- Handle
  heating setpoint default day,           !- Name
  {9a77c10e-de8b-4227-a102-bd2324c471d7}, !- Schedule Type Limits Name
  ,                                       !- Interpolate to Timestep
  24,                                     !- Hour 1
  0,                                      !- Minute 1
  0;                                      !- Value Until Time 1

OS:Schedule:Rule,
  {0b2d0208-9cca-4911-962d-0f9661e6e50f}, !- Handle
  heating setpoint allday rule,           !- Name
  {58602048-8da6-4aaa-a520-c1611d0fb35f}, !- Schedule Ruleset Name
  0,                                      !- Rule Order
  {71581550-ae70-4fff-8f6d-6350ad71d6a6}, !- Day Schedule Name
  Yes,                                    !- Apply Sunday
  Yes,                                    !- Apply Monday
  Yes,                                    !- Apply Tuesday
  Yes,                                    !- Apply Wednesday
  Yes,                                    !- Apply Thursday
  Yes,                                    !- Apply Friday
  Yes,                                    !- Apply Saturday
  DateRange,                              !- Date Specification Type
  1,                                      !- Start Month
  1,                                      !- Start Day
  12,                                     !- End Month
  31;                                     !- End Day

OS:Schedule:Day,
  {71581550-ae70-4fff-8f6d-6350ad71d6a6}, !- Handle
  heating setpoint day,                   !- Name
  {9a77c10e-de8b-4227-a102-bd2324c471d7}, !- Schedule Type Limits Name
  ,                                       !- Interpolate to Timestep
  24,                                     !- Hour 1
  0,                                      !- Minute 1
  20;                                     !- Value Until Time 1

OS:Schedule:Ruleset,
  {e6075c3b-3578-4140-b642-e0c40fba686f}, !- Handle
  cooling setpoint,                       !- Name
  {9a77c10e-de8b-4227-a102-bd2324c471d7}, !- Schedule Type Limits Name
  {be2a7978-07e3-48ca-9ef3-ae615324aaf9}; !- Default Day Schedule Name

OS:Schedule:Day,
  {be2a7978-07e3-48ca-9ef3-ae615324aaf9}, !- Handle
  cooling setpoint default day,           !- Name
  {9a77c10e-de8b-4227-a102-bd2324c471d7}, !- Schedule Type Limits Name
  ,                                       !- Interpolate to Timestep
  24,                                     !- Hour 1
  0,                                      !- Minute 1
  0;                                      !- Value Until Time 1

OS:Schedule:Rule,
  {b8f87228-20e5-4872-9340-8a461edbf057}, !- Handle
  cooling setpoint allday rule,           !- Name
  {e6075c3b-3578-4140-b642-e0c40fba686f}, !- Schedule Ruleset Name
  0,                                      !- Rule Order
  {95ba8f04-506b-41ba-b9a0-fc0aca3e53d3}, !- Day Schedule Name
  Yes,                                    !- Apply Sunday
  Yes,                                    !- Apply Monday
  Yes,                                    !- Apply Tuesday
  Yes,                                    !- Apply Wednesday
  Yes,                                    !- Apply Thursday
  Yes,                                    !- Apply Friday
  Yes,                                    !- Apply Saturday
  DateRange,                              !- Date Specification Type
  1,                                      !- Start Month
  1,                                      !- Start Day
  12,                                     !- End Month
  31;                                     !- End Day

OS:Schedule:Day,
  {95ba8f04-506b-41ba-b9a0-fc0aca3e53d3}, !- Handle
  cooling setpoint day,                   !- Name
  {9a77c10e-de8b-4227-a102-bd2324c471d7}, !- Schedule Type Limits Name
  ,                                       !- Interpolate to Timestep
  24,                                     !- Hour 1
  0,                                      !- Minute 1
  25.5555555555556;                       !- Value Until Time 1

OS:ThermostatSetpoint:DualSetpoint,
  {bfee5e88-6b5c-448c-a1c1-2e6372f0764b}, !- Handle
  conditioned space temperature setpoint, !- Name
  {58602048-8da6-4aaa-a520-c1611d0fb35f}, !- Heating Setpoint Temperature Schedule Name
  {e6075c3b-3578-4140-b642-e0c40fba686f}, !- Cooling Setpoint Temperature Schedule Name
  0;                                      !- Temperature Difference Between Cutout And Setpoint {deltaC}

OS:ScheduleTypeLimits,
  {9a77c10e-de8b-4227-a102-bd2324c471d7}, !- Handle
  Temperature,                            !- Name
  ,                                       !- Lower Limit Value
  ,                                       !- Upper Limit Value
  Continuous,                             !- Numeric Type
  Temperature;                            !- Unit Type

OS:Surface,
  {a1b865b4-2f87-4143-8578-c067696e01e5}, !- Handle
  Roof1,                                  !- Name
  RoofCeiling,                            !- Surface Type
  {46e9d285-33c3-4053-8024-ac694cd028a1}, !- Construction Name
  {699f6eff-0a0c-4cdf-b161-8abe4029e440}, !- Space Name
  Outdoors,                               !- Outside Boundary Condition
  ,                                       !- Outside Boundary Condition Object
  SunExposed,                             !- Sun Exposure
  WindExposed,                            !- Wind Exposure
  ,                                       !- View Factor to Ground
  ,                                       !- Number of Vertices
  9.8030170292795, 22.3990406761293, 3.048, !- X,Y,Z Vertex 1 {m}
  9.8030170292795, 11.1328146279089, 8.6811130241102, !- X,Y,Z Vertex 2 {m}
  22.3990406761293, 11.1328146279089, 8.6811130241102, !- X,Y,Z Vertex 3 {m}
  22.3990406761293, 22.3990406761293, 3.048; !- X,Y,Z Vertex 4 {m}

OS:AdditionalProperties,
  {80264416-02a0-4d9f-8bab-b82d89fb747b}, !- Handle
  {a1b865b4-2f87-4143-8578-c067696e01e5}, !- Object Name
  Length,                                 !- Feature Name 1
  Double,                                 !- Feature Data Type 1
  41.325536899113608,                     !- Feature Value 1
  Width,                                  !- Feature Name 2
  Double,                                 !- Feature Data Type 2
  41.325536899113601,                     !- Feature Value 2
  Azimuth,                                !- Feature Name 3
  Integer,                                !- Feature Data Type 3
  0,                                      !- Feature Value 3
  Tilt,                                   !- Feature Name 4
  Double,                                 !- Feature Data Type 4
  0.5,                                    !- Feature Value 4
  SurfaceType,                            !- Feature Name 5
  String,                                 !- Feature Data Type 5
  Roof;                                   !- Feature Value 5

OS:ThermalZone,
  {1432da9b-4ce8-4c7c-8088-37218fb1065a}, !- Handle
  attic - vented,                         !- Name
  1,                                      !- Multiplier
  ,                                       !- Ceiling Height {m}
  356.389957095237,                       !- Volume {m3}
  ,                                       !- Floor Area {m2}
  ,                                       !- Zone Inside Convection Algorithm
  ,                                       !- Zone Outside Convection Algorithm
  ,                                       !- Zone Conditioning Equipment List Name
  {b73dd623-93e3-4804-bd3c-c00f3ca914cb}, !- Zone Air Inlet Port List
  {c9b8cb95-ed8e-4b6e-bf3c-c1d7eac072c0}, !- Zone Air Exhaust Port List
  {88ccb800-1ed5-4db4-96ff-c9994f0c3645}, !- Zone Air Node Name
  {743a9976-89b7-420a-8af7-953393c7b721}, !- Zone Return Air Port List
  ,                                       !- Primary Daylighting Control Name
  ,                                       !- Fraction of Zone Controlled by Primary Daylighting Control
  ,                                       !- Secondary Daylighting Control Name
  ,                                       !- Fraction of Zone Controlled by Secondary Daylighting Control
  ,                                       !- Illuminance Map Name
  ,                                       !- Group Rendering Name
  ,                                       !- Thermostat Name
  No;                                     !- Use Ideal Air Loads

OS:Node,
  {5f26fe48-8796-4b36-af78-15c1dc2525d2}, !- Handle
  Node 2,                                 !- Name
  {88ccb800-1ed5-4db4-96ff-c9994f0c3645}, !- Inlet Port
  ;                                       !- Outlet Port

OS:Connection,
  {88ccb800-1ed5-4db4-96ff-c9994f0c3645}, !- Handle
  {1432da9b-4ce8-4c7c-8088-37218fb1065a}, !- Source Object
  11,                                     !- Outlet Port
  {5f26fe48-8796-4b36-af78-15c1dc2525d2}, !- Target Object
  2;                                      !- Inlet Port

OS:PortList,
  {b73dd623-93e3-4804-bd3c-c00f3ca914cb}, !- Handle
  {1432da9b-4ce8-4c7c-8088-37218fb1065a}; !- HVAC Component

OS:PortList,
  {c9b8cb95-ed8e-4b6e-bf3c-c1d7eac072c0}, !- Handle
  {1432da9b-4ce8-4c7c-8088-37218fb1065a}; !- HVAC Component

OS:PortList,
  {743a9976-89b7-420a-8af7-953393c7b721}, !- Handle
  {1432da9b-4ce8-4c7c-8088-37218fb1065a}; !- HVAC Component

OS:Sizing:Zone,
  {67f103b5-bde8-4753-861a-7e6a6dd17a3a}, !- Handle
  {1432da9b-4ce8-4c7c-8088-37218fb1065a}, !- Zone or ZoneList Name
  SupplyAirTemperature,                   !- Zone Cooling Design Supply Air Temperature Input Method
  14,                                     !- Zone Cooling Design Supply Air Temperature {C}
  11.11,                                  !- Zone Cooling Design Supply Air Temperature Difference {deltaC}
  SupplyAirTemperature,                   !- Zone Heating Design Supply Air Temperature Input Method
  40,                                     !- Zone Heating Design Supply Air Temperature {C}
  11.11,                                  !- Zone Heating Design Supply Air Temperature Difference {deltaC}
  0.0085,                                 !- Zone Cooling Design Supply Air Humidity Ratio {kg-H2O/kg-air}
  0.008,                                  !- Zone Heating Design Supply Air Humidity Ratio {kg-H2O/kg-air}
  ,                                       !- Zone Heating Sizing Factor
  ,                                       !- Zone Cooling Sizing Factor
  DesignDay,                              !- Cooling Design Air Flow Method
  ,                                       !- Cooling Design Air Flow Rate {m3/s}
  ,                                       !- Cooling Minimum Air Flow per Zone Floor Area {m3/s-m2}
  ,                                       !- Cooling Minimum Air Flow {m3/s}
  ,                                       !- Cooling Minimum Air Flow Fraction
  DesignDay,                              !- Heating Design Air Flow Method
  ,                                       !- Heating Design Air Flow Rate {m3/s}
  ,                                       !- Heating Maximum Air Flow per Zone Floor Area {m3/s-m2}
  ,                                       !- Heating Maximum Air Flow {m3/s}
  ,                                       !- Heating Maximum Air Flow Fraction
  No,                                     !- Account for Dedicated Outdoor Air System
  NeutralSupplyAir,                       !- Dedicated Outdoor Air System Control Strategy
  autosize,                               !- Dedicated Outdoor Air Low Setpoint Temperature for Design {C}
  autosize,                               !- Dedicated Outdoor Air High Setpoint Temperature for Design {C}
  Sensible Load Only No Latent Load,      !- Zone Load Sizing Method
  HumidityRatioDifference,                !- Zone Latent Cooling Design Supply Air Humidity Ratio Input Method
  ,                                       !- Zone Dehumidification Design Supply Air Humidity Ratio {kgWater/kgDryAir}
  0.005,                                  !- Zone Cooling Design Supply Air Humidity Ratio Difference {kgWater/kgDryAir}
  HumidityRatioDifference,                !- Zone Latent Heating Design Supply Air Humidity Ratio Input Method
  ,                                       !- Zone Humidification Design Supply Air Humidity Ratio {kgWater/kgDryAir}
  0.005,                                  !- Zone Humidification Design Supply Air Humidity Ratio Difference {kgWater/kgDryAir}
  ,                                       !- Zone Humidistat Dehumidification Set Point Schedule Name
  ,                                       !- Zone Humidistat Humidification Set Point Schedule Name
  ,                                       !- Design Zone Air Distribution Effectiveness in Cooling Mode
  ,                                       !- Design Zone Air Distribution Effectiveness in Heating Mode
  ,                                       !- Design Zone Secondary Recirculation Fraction {dimensionless}
  ,                                       !- Design Minimum Zone Ventilation Efficiency {dimensionless}
  Coincident;                             !- Sizing Option

OS:ZoneHVAC:EquipmentList,
  {ff8ef123-5101-4852-84ea-b3c18d5437a2}, !- Handle
  Zone HVAC Equipment List 2,             !- Name
  {1432da9b-4ce8-4c7c-8088-37218fb1065a}; !- Thermal Zone

OS:AdditionalProperties,
  {e3770824-a6ab-492c-835f-20b45064d51c}, !- Handle
  {1432da9b-4ce8-4c7c-8088-37218fb1065a}, !- Object Name
  ObjectType,                             !- Feature Name 1
  String,                                 !- Feature Data Type 1
  attic - vented;                         !- Feature Value 1

OS:Space,
  {699f6eff-0a0c-4cdf-b161-8abe4029e440}, !- Handle
  attic - vented 1,                       !- Name
  ,                                       !- Space Type Name
  ,                                       !- Default Construction Set Name
  ,                                       !- Default Schedule Set Name
  ,                                       !- Direction of Relative North {deg}
  ,                                       !- X Origin {m}
  ,                                       !- Y Origin {m}
  ,                                       !- Z Origin {m}
  ,                                       !- Building Story Name
  {1432da9b-4ce8-4c7c-8088-37218fb1065a}, !- Thermal Zone Name
  ,                                       !- Part of Total Floor Area
  ,                                       !- Design Specification Outdoor Air Object Name
  ,                                       !- Building Unit Name
  356.389957095237;                       !- Volume {m3}

OS:Material,
  {3bfde52c-53bc-4fae-a4cc-ae8e3da5e46f}, !- Handle
  asphalt or fiberglass shingles,         !- Name
  Rough,                                  !- Roughness
  0.00635,                                !- Thickness {m}
  0.162714,                               !- Conductivity {W/m-K}
  1121.4,                                 !- Density {kg/m3}
  1465.45,                                !- Specific Heat {J/kg-K}
  0.9,                                    !- Thermal Absorptance
  0.85,                                   !- Solar Absorptance