
OS:Version,
  {ed285483-d3ae-4adb-84df-ad67146d6137}, !- Handle
  3.10.0;                                 !- Version Identifier

OS:SimulationControl,
  {9cab7be7-d555-49ce-8fae-c7d158adb272}, !- Handle
  ,                                       !- Do Zone Sizing Calculation
  ,                                       !- Do System Sizing Calculation
  ,                                       !- Do Plant Sizing Calculation
  No;                                     !- Run Simulation for Sizing Periods

OS:Timestep,
  {cc4af72d-5a25-49ef-9a03-70c3e557392d}, !- Handle
  1;                                      !- Number of Timesteps per Hour

OS:ShadowCalculation,
  {7c4d5fca-c475-4778-a5e5-58e67eeb844d}, !- Handle
  PolygonClipping,                        !- Shading Calculation Method
  ,                                       !- Shading Calculation Update Frequency Method
  20,                                     !- Shading Calculation Update Frequency
  200,                                    !- Maximum Figures in Shadow Overlap Calculations
  ,                                       !- Polygon Clipping Algorithm
  512,                                    !- Pixel Counting Resolution
  ,                                       !- Sky Diffuse Modeling Algorithm
  No,                                     !- Output External Shading Calculation Results
  No,                                     !- Disable Self-Shading Within Shading Zone Groups
  No;                                     !- Disable Self-Shading From Shading Zone Groups to Other Zones

OS:SurfaceConvectionAlgorithm:Outside,
  {9230f087-9af4-4459-bdd0-17b60e1d6e14}, !- Handle
  DOE-2;                                  !- Algorithm

OS:SurfaceConvectionAlgorithm:Inside,
  {b916c2f5-d7a1-4c16-9092-92228fa1b47c}, !- Handle
  TARP;                                   !- Algorithm

OS:ZoneCapacitanceMultiplier:ResearchSpecial,
  {49a102d5-9884-47f7-bc80-1e0922a06047}, !- Handle
  7,                                      !- Temperature Capacity Multiplier
  15,                                     !- Humidity Capacity Multiplier
  ;                                       !- Carbon Dioxide Capacity Multiplier

OS:ConvergenceLimits,
  {a5058657-ff4b-4c9e-b2d8-48b3ee218859}, !- Handle
  0;                                      !- Minimum System Timestep {minutes}

OS:RunPeriod,
  {3140acac-ff1c-4bff-bf48-683de55e876b}, !- Handle
  Run Period 1,                           !- Name
  1,                                      !- Begin Month
  1,                                      !- Begin Day of Month
  12,                                     !- End Month
  31,                                     !- End Day of Month
  ,                                       !- Use Weather File Holidays and Special Days
  ,                                       !- Use Weather File Daylight Saving Period
  ,                                       !- Apply Weekend Holiday Rule
  ,                                       !- Use Weather File Rain Indicators
  ,                                       !- Use Weather File Snow Indicators
  ;                                       !- Number of Times Runperiod to be Repeated

OS:PerformancePrecisionTradeoffs,
  {c6631a48-173c-4dda-8bb6-fe180c6c2339}, !- Handle
  ,                                       !- Use Coil Direct Solutions
  CarrollMRT;                             !- Zone Radiant Exchange Algorithm

OS:WeatherFile,
  {20196ba3-6765-4a05-a159-d9c52f3b1fb8}, !- Handle
  Buffalo Niagara Intl Ap,                !- City
  NY,                                     !- State Province Region
  USA,                                    !- Country
  TMY3,                                   !- Data Source
  725280,                                 !- WMO Number
  42.93,                                  !- Latitude {deg}
  -78.73,                                 !- Longitude {deg}
  -5,                                     !- Time Zone {hr}
  215,                                    !- Elevation {m}
  /Users/nmoore/github/urbanopt-example-geojson-project/example_project/weather/USA_NY_Buffalo-Greater.Buffalo.Intl.AP.725280_TMY3.epw, !- Url
  6B50E0FF,                               !- Checksum
  ,                                       !- Start Date Actual Year
  Sunday;                                 !- Start Day of Week

OS:YearDescription,
  {b899139b-36d1-4212-8d0a-182f7f867005}, !- Handle
  2007,                                   !- Calendar Year
  ,                                       !- Day of Week for Start Day
  ;                                       !- Is Leap Year

OS:Site,
  {949821f5-b407-4159-9f5f-1547d3291a7e}, !- Handle
  Buffalo Niagara Intl Ap_NY,             !- Name
  42.93,                                  !- Latitude {deg}
  -78.73,                                 !- Longitude {deg}
  -5,                                     !- Time Zone {hr}
  215,                                    !- Elevation {m}
  Suburbs,                                !- Terrain
  Yes;                                    !- Keep Site Location Information

OS:RunPeriodControl:DaylightSavingTime,
  {64786024-23a0-4b3a-888c-4f5c0e15dabe}, !- Handle
  Mar 12,                                 !- Start Date
  Nov 5;                                  !- End Date

OS:Site:GroundTemperature:Shallow,
  {589722f9-b615-4a39-b06d-7b957c41b954}, !- Handle
  4.30207395723828,                       !- January Surface Ground Temperature {C}
  2.29327249652502,                       !- February Surface Ground Temperature {C}
  2.13240047156047,                       !- March Surface Ground Temperature {C}
  3.08567940719286,                       !- April Surface Ground Temperature {C}
  6.91256312497526,                       !- May Surface Ground Temperature {C}
  10.7216195949507,                       !- June Surface Ground Temperature {C}
  14.0238679822574,                       !- July Surface Ground Temperature {C}
  16.1157611184724,                       !- August Surface Ground Temperature {C}
  16.2934789303462,                       !- September Surface Ground Temperature {C}
  14.5920754632847,                       !- October Surface Ground Temperature {C}
  11.374036348653,                        !- November Surface Ground Temperature {C}
  7.68182621661674;                       !- December Surface Ground Temperature {C}

OS:ThermalZone,
  {ce52fe28-c133-4942-82e9-40b777bdb31e}, !- Handle
  conditioned space,                      !- Name
  1,                                      !- Multiplier
  ,                                       !- Ceiling Height {m}
  346.03186535424,                        !- Volume {m3}
  ,                                       !- Floor Area {m2}
  ,                                       !- Zone Inside Convection Algorithm
  ,                                       !- Zone Outside Convection Algorithm
  ,                                       !- Zone Conditioning Equipment List Name
  {c2a44de8-4b10-483c-b9b3-49e9a25e0771}, !- Zone Air Inlet Port List
  {b0bbbdd9-b093-4626-89f3-53489e1a4b82}, !- Zone Air Exhaust Port List
  {dcb211e0-de57-43d9-99cf-a3c8decd63d1}, !- Zone Air Node Name
  {3170331d-7909-43b7-ba10-5485fa7b93fc}, !- Zone Return Air Port List
  ,                                       !- Primary Daylighting Control Name
  ,                                       !- Fraction of Zone Controlled by Primary Daylighting Control
  ,                                       !- Secondary Daylighting Control Name
  ,                                       !- Fraction of Zone Controlled by Secondary Daylighting Control
  ,                                       !- Illuminance Map Name
  ,                                       !- Group Rendering Name
  {ae6aa58f-b3d0-436d-ad08-e5381531f4b3}, !- Thermostat Name
  No;                                     !- Use Ideal Air Loads

OS:Node,
  {58f52639-0731-427f-88b7-675b1abe7fd3}, !- Handle
  Node 1,                                 !- Name
  {dcb211e0-de57-43d9-99cf-a3c8decd63d1}, !- Inlet Port
  ;                                       !- Outlet Port

OS:Connection,
  {dcb211e0-de57-43d9-99cf-a3c8decd63d1}, !- Handle
  {ce52fe28-c133-4942-82e9-40b777bdb31e}, !- Source Object
  11,                                     !- Outlet Port
  {58f52639-0731-427f-88b7-675b1abe7fd3}, !- Target Object
  2;                                      !- Inlet Port

OS:PortList,
  {c2a44de8-4b10-483c-b9b3-49e9a25e0771}, !- Handle
  {ce52fe28-c133-4942-82e9-40b777bdb31e}, !- HVAC Component
  {6ce7dc37-ffdf-4b6b-bc78-f08741f8e9c8}; !- Port 1

OS:PortList,
  {b0bbbdd9-b093-4626-89f3-53489e1a4b82}, !- Handle
  {ce52fe28-c133-4942-82e9-40b777bdb31e}; !- HVAC Component

OS:PortList,
  {3170331d-7909-43b7-ba10-5485fa7b93fc}, !- Handle
  {ce52fe28-c133-4942-82e9-40b777bdb31e}, !- HVAC Component
  {b1ddbaef-8af5-4e60-b1a8-4497e1478e18}; !- Port 1

OS:Sizing:Zone,
  {eeab31db-a6e5-4387-84f1-4dc5c1a8f69d}, !- Handle
  {ce52fe28-c133-4942-82e9-40b777bdb31e}, !- Zone or ZoneList Name
  SupplyAirTemperature,                   !- Zone Cooling Design Supply Air Temperature Input Method
  14,                                     !- Zone Cooling Design Supply Air Temperature {C}
  11.11,                                  !- Zone Cooling Design Supply Air Temperature Difference {deltaC}
  SupplyAirTemperature,                   !- Zone Heating Design Supply Air Temperature Input Method
  40,                                     !- Zone Heating Design Supply Air Temperature {C}
  11.11,                                  !- Zone Heating Design Supply Air Temperature Difference {deltaC}
  0.0085,                                 !- Zone Cooling Design Supply Air Humidity Ratio {kg-H2O/kg-air}
  0.008,                                  !- Zone Heating Design Supply Air Humidity Ratio {kg-H2O/kg-air}
  ,                                       !- Zone Heating Sizing Factor
  ,                                       !- Zone Cooling Sizing Factor
  DesignDay,                              !- Cooling Design Air Flow Method
  ,                                       !- Cooling Design Air Flow Rate {m3/s}
  ,                                       !- Cooling Minimum Air Flow per Zone Floor Area {m3/s-m2}
  ,                                       !- Cooling Minimum Air Flow {m3/s}
  ,                                       !- Cooling Minimum Air Flow Fraction
  DesignDay,                              !- Heating Design Air Flow Method
  ,                                       !- Heating Design Air Flow Rate {m3/s}
  ,                                       !- Heating Maximum Air Flow per Zone Floor Area {m3/s-m2}
  ,                                       !- Heating Maximum Air Flow {m3/s}
  ,                                       !- Heating Maximum Air Flow Fraction
  No,                                     !- Account for Dedicated Outdoor Air System
  NeutralSupplyAir,                       !- Dedicated Outdoor Air System Control Strategy
  autosize,                               !- Dedicated Outdoor Air Low Setpoint Temperature for Design {C}
  autosize,                               !- Dedicated Outdoor Air High Setpoint Temperature for Design {C}
  Sensible Load Only No Latent Load,      !- Zone Load Sizing Method
  HumidityRatioDifference,                !- Zone Latent Cooling Design Supply Air Humidity Ratio Input Method
  ,                                       !- Zone Dehumidification Design Supply Air Humidity Ratio {kgWater/kgDryAir}
  0.005,                                  !- Zone Cooling Design Supply Air Humidity Ratio Difference {kgWater/kgDryAir}
  HumidityRatioDifference,                !- Zone Latent Heating Design Supply Air Humidity Ratio Input Method
  ,                                       !- Zone Humidification Design Supply Air Humidity Ratio {kgWater/kgDryAir}
  0.005,                                  !- Zone Humidification Design Supply Air Humidity Ratio Difference {kgWater/kgDryAir}
  ,                                       !- Zone Humidistat Dehumidification Set Point Schedule Name
  ,                                       !- Zone Humidistat Humidification Set Point Schedule Name
  ,                                       !- Design Zone Air Distribution Effectiveness in Cooling Mode
  ,                                       !- Design Zone Air Distribution Effectiveness in Heating Mode
  ,                                       !- Design Zone Secondary Recirculation Fraction {dimensionless}
  ,                                       !- Design Minimum Zone Ventilation Efficiency {dimensionless}
  Coincident;                             !- Sizing Option

OS:ZoneHVAC:EquipmentList,
  {d2ff5c6f-a4b4-4233-9699-750c5ed40564}, !- Handle
  Zone HVAC Equipment List 1,             !- Name
  {ce52fe28-c133-4942-82e9-40b777bdb31e}, !- Thermal Zone
  ,                                       !- Load Distribution Scheme
  {f4118696-0d2a-44ec-8ca1-af344bfa6f7b}, !- Zone Equipment 1
  1,                                      !- Zone Equipment Cooling Sequence 1
  1,                                      !- Zone Equipment Heating or No-Load Sequence 1
  {21c5640d-ff41-4ea4-b040-b36af9367743}, !- Zone Equipment Sequential Cooling Fraction Schedule Name 1
  {23e05744-97df-4901-8106-2fc0c7a337b0}; !- Zone Equipment Sequential Heating Fraction Schedule Name 1

OS:AdditionalProperties,
  {24204aa2-1a2f-4c85-9e01-0e842ad8ad3c}, !- Handle
  {ce52fe28-c133-4942-82e9-40b777bdb31e}, !- Object Name
  ObjectType,                             !- Feature Name 1
  String,                                 !- Feature Data Type 1
  conditioned space;                      !- Feature Value 1

OS:Space,
  {4610a726-1905-499f-a303-49f79c33e7dd}, !- Handle
  conditioned space 1,                    !- Name
  ,                                       !- Space Type Name
  ,                                       !- Default Construction Set Name
  ,                                       !- Default Schedule Set Name
  ,                                       !- Direction of Relative North {deg}
  ,                                       !- X Origin {m}
  ,                                       !- Y Origin {m}
  ,                                       !- Z Origin {m}
  ,                                       !- Building Story Name
  {ce52fe28-c133-4942-82e9-40b777bdb31e}, !- Thermal Zone Name
  ,                                       !- Part of Total Floor Area
  ,                                       !- Design Specification Outdoor Air Object Name
  ,                                       !- Building Unit Name
  346.03186535424;                        !- Volume {m3}

OS:Schedule:Ruleset,
  {cab476e5-221d-43bd-880b-88ec7032a811}, !- Handle
  heating setpoint,                       !- Name
  {420b6610-47e1-4e87-9c60-479fc00ddf13}, !- Schedule Type Limits Name
  {ebc46d30-0d94-45c2-b597-67d517ea8256}; !- Default Day Schedule Name

OS:Schedule:Day,
  {ebc46d30-0d94-45c2-b597-67d517ea8256}, !- Handle
  heating setpoint default day,           !- Name
  {420b6610-47e1-4e87-9c60-479fc00ddf13}, !- Schedule Type Limits Name
  ,                                       !- Interpolate to Timestep
  24,                                     !- Hour 1
  0,                                      !- Minute 1
  0;                                      !- Value Until Time 1

OS:Schedule:Rule,
  {9f570d19-58a5-4e39-b9d4-6f80203aafd6}, !- Handle
  heating setpoint allday rule,           !- Name
  {cab476e5-221d-43bd-880b-88ec7032a811}, !- Schedule Ruleset Name
  0,                                      !- Rule Order
  {c836724c-8c9a-431f-8b2c-349bdeaac8c2}, !- Day Schedule Name
  Yes,                                    !- Apply Sunday
  Yes,                                    !- Apply Monday
  Yes,                                    !- Apply Tuesday
  Yes,                                    !- Apply Wednesday
  Yes,                                    !- Apply Thursday
  Yes,                                    !- Apply Friday
  Yes,                                    !- Apply Saturday
  DateRange,                              !- Date Specification Type
  1,                                      !- Start Month
  1,                                      !- Start Day
  12,                                     !- End Month
  31;                                     !- End Day

OS:Schedule:Day,
  {c836724c-8c9a-431f-8b2c-349bdeaac8c2}, !- Handle
  heating setpoint day,                   !- Name
  {420b6610-47e1-4e87-9c60-479fc00ddf13}, !- Schedule Type Limits Name
  ,                                       !- Interpolate to Timestep
  24,                                     !- Hour 1
  0,                                      !- Minute 1
  20;                                     !- Value Until Time 1

OS:Schedule:Ruleset,
  {c8677ed7-03ae-4d0e-a54b-3cfbd4ece0f9}, !- Handle
  cooling setpoint,                       !- Name
  {420b6610-47e1-4e87-9c60-479fc00ddf13}, !- Schedule Type Limits Name
  {d510d0af-1cdf-424e-b155-b8a9cf9d9d58}; !- Default Day Schedule Name

OS:Schedule:Day,
  {d510d0af-1cdf-424e-b155-b8a9cf9d9d58}, !- Handle
  cooling setpoint default day,           !- Name
  {420b6610-47e1-4e87-9c60-479fc00ddf13}, !- Schedule Type Limits Name
  ,                                       !- Interpolate to Timestep
  24,                                     !- Hour 1
  0,                                      !- Minute 1
  0;                                      !- Value Until Time 1

OS:Schedule:Rule,
  {7f53328e-556b-44e4-9296-cb92dddbcbbf}, !- Handle
  cooling setpoint allday rule,           !- Name
  {c8677ed7-03ae-4d0e-a54b-3cfbd4ece0f9}, !- Schedule Ruleset Name
  0,                                      !- Rule Order
  {0a1b25fd-8f60-4f3c-b07e-2ccf5d218067}, !- Day Schedule Name
  Yes,                                    !- Apply Sunday
  Yes,                                    !- Apply Monday
  Yes,                                    !- Apply Tuesday
  Yes,                                    !- Apply Wednesday
  Yes,                                    !- Apply Thursday
  Yes,                                    !- Apply Friday
  Yes,                                    !- Apply Saturday
  DateRange,                              !- Date Specification Type
  1,                                      !- Start Month
  1,                                      !- Start Day
  12,                                     !- End Month
  31;                                     !- End Day

OS:Schedule:Day,
  {0a1b25fd-8f60-4f3c-b07e-2ccf5d218067}, !- Handle
  cooling setpoint day,                   !- Name
  {420b6610-47e1-4e87-9c60-479fc00ddf13}, !- Schedule Type Limits Name
  ,                                       !- Interpolate to Timestep
  24,                                     !- Hour 1
  0,                                      !- Minute 1
  25.5555555555556;                       !- Value Until Time 1

OS:ThermostatSetpoint:DualSetpoint,
  {ae6aa58f-b3d0-436d-ad08-e5381531f4b3}, !- Handle
  conditioned space temperature setpoint, !- Name
  {cab476e5-221d-43bd-880b-88ec7032a811}, !- Heating Setpoint Temperature Schedule Name
  {c8677ed7-03ae-4d0e-a54b-3cfbd4ece0f9}, !- Cooling Setpoint Temperature Schedule Name
  0;                                      !- Temperature Difference Between Cutout And Setpoint {deltaC}

OS:ScheduleTypeLimits,
  {420b6610-47e1-4e87-9c60-479fc00ddf13}, !- Handle
  Temperature,                            !- Name
  ,                                       !- Lower Limit Value
  ,                                       !- Upper Limit Value
  Continuous,                             !- Numeric Type
  Temperature;                            !- Unit Type

OS:Surface,
  {58ff3ca1-ad0c-4003-a5a3-af4806275acb}, !- Handle
  Roof1,                                  !- Name
  RoofCeiling,                            !- Surface Type
  {5fa1353a-e517-4905-ae4a-a0b8e74fa2f4}, !- Construction Name
  {4610a726-1905-499f-a303-49f79c33e7dd}, !- Space Name
  Outdoors,                               !- Outside Boundary Condition
  ,                                       !- Outside Boundary Condition Object
  SunExposed,                             !- Sun Exposure
  WindExposed,                            !- Wind Exposure
  ,                                       !- View Factor to Ground
  ,                                       !- Number of Vertices
  -0.687372254093932, 8.21936148257969, 3.048, !- X,Y,Z Vertex 1 {m}
  -0.687372254093932, 0.252936645502524, 7.03121241853859, !- X,Y,Z Vertex 2 {m}
  8.21936148257969, 0.252936645502514, 7.03121241853859, !- X,Y,Z Vertex 3 {m}
  8.21936148257969, 8.21936148257968, 3.048; !- X,Y,Z Vertex 4 {m}

OS:AdditionalProperties,
  {29c4fffd-96c6-4af8-8c1f-e5b9cbf4febb}, !- Handle
  {58ff3ca1-ad0c-4003-a5a3-af4806275acb}, !- Object Name
  Length,                                 !- Feature Name 1
  Double,                                 !- Feature Data Type 1
  29.221567377538118,                     !- Feature Value 1
  Width,                                  !- Feature Name 2
  Double,                                 !- Feature Data Type 2
  29.221567377538118,                     !- Feature Value 2
  Azimuth,                                !- Feature Name 3
  Integer,                                !- Feature Data Type 3
  0,                                      !- Feature Value 3
  Tilt,                                   !- Feature Name 4
  Double,                                 !- Feature Data Type 4
  0.5,                                    !- Feature Value 4
  SurfaceType,                            !- Feature Name 5
  String,                                 !- Feature Data Type 5
  Roof;                                   !- Feature Value 5

OS:Material,
  {382ae2e4-75b2-4250-9dc8-3aaef3c91c81}, !- Handle
  asphalt or fiberglass shingles,         !- Name
  Rough,                                  !- Roughness
  0.00635,                                !- Thickness {m}
  0.162714,                               !- Conductivity {W/m-K}
  1121.4,                                 !- Density {kg/m3}
  1465.45,                                !- Specific Heat {J/kg-K}
  0.9,                                    !- Thermal Absorptance
  0.85,                                   !- Solar Absorptance
  0.85;                                   !- Visible Absorptance

OS:Material,
  {0282f1e7-df53-41a7-a078-e13f5c4f2de7}, !- Handle
  roof stud and cavity,                   !- Name
  Rough,                                  !- Roughness
  0.0889,                                 !- Thickness {m}
  0.468249472857624,                      !- Conductivity {W/m-K}
  50.32683,                               !- Density {kg/m3}
  1063.80987585548,                       !- Specific Heat {J/kg-K}
  0.9,                                    !- Thermal Absorptance
  0.7,                                    !- Solar Absorptance
  0.7;                                    !- Visible Absorptance

OS:Material,
  {6960fda5-96d5-4f2c-b9a1-e4e5fd52f433}, !- Handle
  gypsum board,                           !- Name
  Rough,                                  !- Roughness
  0.00254,                                !- Thickness {m}
  0.1602906,                              !- Conductivity {W/m-K}
  801,                                    !- Density {kg/m3}
  837.4,                                  !- Specific Heat {J/kg-K}
  0.9,                                    !- Thermal Absorptance
  0.6,                                    !- Solar Absorptance
  0.6;                                    !- Visible Absorptance

OS:Construction,
  {5fa1353a-e517-4905-ae4a-a0b8e74fa2f4}, !- Handle
  Roof1 construction,                     !- Name
  ,                                       !- Surface Rendering Name
  {382ae2e4-75b2-4250-9dc8-3aaef3c91c81}, !- Layer 1
  {0282f1e7-df53-41a7-a078-e13f5c4f2de7}, !- Layer 2
  {6960fda5-96d5-4f2c-b9a1-e4e5fd52f433}; !- Layer 3

OS:Surface,
  {19d4e9d8-12c0-41d4-ba04-46e6aa30a25d}, !- Handle
  Roof2,                                  !- Name
  RoofCeiling,                            !- Surface Type
  {988e401b-34b8-482c-905c-faf473ec2d53}, !- Construction Name
  {4610a726-1905-499f-a303-49f79c33e7dd}, !- Space Name
  Outdoors,                               !- Outside Boundary Condition
  ,                                       !- Outside Boundary Condition Object
  SunExposed,                             !- Sun Exposure
  WindExposed,                            !- Wind Exposure
  ,                                       !- View Factor to Ground
  ,                                       !- Number of Vertices
  0.687372254093932, -8.21936148257968, 3.048, !- X,Y,Z Vertex 1 {m}
  0.687372254093932, -0.252936645502525, 7.03121241853859, !- X,Y,Z Vertex 2 {m}
  -8.21936148257969, -0.252936645502525, 7.03121241853859, !- X,Y,Z Vertex 3 {m}
  -8.21936148257969, -8.21936148257968, 3.048; !- X,Y,Z Vertex 4 {m}

OS:AdditionalProperties,
  {05b3f472-1242-4b46-84f8-923bf5e6c125}, !- Handle
  {19d4e9d8-12c0-41d4-ba04-46e6aa30a25d}, !- Object Name
  Length,                                 !- Feature Name 1
  Double,                                 !- Feature Data Type 1
  29.221567377538118,                     !- Feature Value 1
  Width,                                  !- Feature Name 2
  Double,                                 !- Feature Data Type 2
  29.221567377538118,                     !- Feature Value 2
  Azimuth,                                !- Feature Name 3
  Integer,                                !- Feature Data Type 3
  180,                                    !- Feature Value 3
  Tilt,                                   !- Feature Name 4
  Double,                                 !- Feature Data Type 4
  0.5,                                    !- Feature Value 4
  SurfaceType,                            !- Feature Name 5
  String,                                 !- Feature Data Type 5
  Roof;                                   !- Feature Value 5

OS:Construction,
  {988e401b-34b8-482c-905c-faf473ec2d53}, !- Handle
  Roof2 construction,                     !- Name
  ,                                       !- Surface Rendering Name
  {382ae2e4-75b2-4250-9dc8-3aaef3c91c81}, !- Layer 1
  {0282f1e7-df53-41a7-a078-e13f5c4f2de7}, !- Layer 2
  {6960fda5-96d5-4f2c-b9a1-e4e5fd52f433}; !- Layer 3

OS:Surface,
  {cae3a313-e733-4e93-a631-a89e10017a74}, !- Handle
  Wall1,                                  !- Name
  Wall,                                   !- Surface Type
  {3f7f25f4-4f92-4bfa-a91a-77f5552bab89}, !- Construction Name
  {4610a726-1905-499f-a303-49f79c33e7dd}, !- Space Name
  Outdoors,                               !- Outside Boundary Condition
  ,                                       !- Outside Boundary Condition Object
  SunExposed,                             !- Sun Exposure
  WindExposed,                            !- Wind Exposure
  ,                                       !- View Factor to Ground
  ,                                       !- Number of Vertices
  -5.82835765409393, 8.21936148257969, 0.6096, !- X,Y,Z Vertex 1 {m}
  -5.82835765409393, 8.21936148257969, 5.4864, !- X,Y,Z Vertex 2 {m}
  -1.61640265409393, 8.21936148257969, 5.4864, !- X,Y,Z Vertex 3 {m}
  -1.61640265409393, 8.21936148257969, 0.6096; !- X,Y,Z Vertex 4 {m}

OS:AdditionalProperties,
  {830721ca-0d60-4db5-9622-c611eeb52f12}, !- Handle
  {cae3a313-e733-4e93-a631-a89e10017a74}, !- Object Name
  Length,                                 !- Feature Name 1
  Double,                                 !- Feature Data Type 1
  13.81875,                               !- Feature Value 1
  Azimuth,                                !- Feature Name 2
  Integer,                                !- Feature Data Type 2
  0,                                      !- Feature Value 2
  Tilt,                                   !- Feature Name 3
  Double,                                 !- Feature Data Type 3
  90,                                     !- Feature Value 3
  SurfaceType,                            !- Feature Name 4
  String,                                 !- Feature Data Type 4
  Wall;                                   !- Feature Value 4

OS:Material,
  {4758f646-3ac8-4d92-bec6-572664463ccd}, !- Handle
  wood siding,                            !- Name
  Rough,                                  !- Roughness
  0.0254,                                 !- Thickness {m}
  0.1024175,                              !- Conductivity {W/m-K}
  544.68,                                 !- Density {kg/m3}
  1172.36,                                !- Specific Heat {J/kg-K}
  0.9,                                    !- Thermal Absorptance
  0.7,                                    !- Solar Absorptance
  0.7;                                    !- Visible Absorptance

OS:Material,
  {de905c6c-826c-4156-bcbe-f878e6674bb1}, !- Handle
  osb sheathing 0.5 in.,                  !- Name
  Rough,                                  !- Roughness
  0.0127,                                 !- Thickness {m}
  0.1154577,                              !- Conductivity {W/m-K}
  512.64,                                 !- Density {kg/m3}
  1214.23,                                !- Specific Heat {J/kg-K}
  0.9,                                    !- Thermal Absorptance
  0.7,                                    !- Solar Absorptance
  0.7;                                    !- Visible Absorptance

OS:Material,
  {2dc54ef4-27ba-40b8-9fef-a55874d42035}, !- Handle
  wall stud and cavity,                   !- Name
  Rough,                                  !- Roughness
  0.1397,                                 !- Thickness {m}
  0.0929021674204099,                     !- Conductivity {W/m-K}
  139.0536,                               !- Density {kg/m3}
  1170.23755760369,                       !- Specific Heat {J/kg-K}
  0.9,                                    !- Thermal Absorptance
  0.7,                                    !- Solar Absorptance