
OS:Version,
  {f74f1106-c61c-4b8d-b608-f882ed0ea95c}, !- Handle
  3.9.0;                                  !- Version Identifier

OS:SimulationControl,
  {bcb7675b-f416-4a68-98f2-f2a5ba2dbcfb}, !- Handle
  ,                                       !- Do Zone Sizing Calculation
  ,                                       !- Do System Sizing Calculation
  ,                                       !- Do Plant Sizing Calculation
  No;                                     !- Run Simulation for Sizing Periods

OS:Timestep,
  {68bccec8-12a3-4e8d-ba85-7debd2bcab7e}, !- Handle
  1;                                      !- Number of Timesteps per Hour

OS:ShadowCalculation,
  {052443cb-ca7e-4015-a2fd-52b6988cc938}, !- Handle
  PolygonClipping,                        !- Shading Calculation Method
  ,                                       !- Shading Calculation Update Frequency Method
  20,                                     !- Shading Calculation Update Frequency
  200,                                    !- Maximum Figures in Shadow Overlap Calculations
  ,                                       !- Polygon Clipping Algorithm
  512,                                    !- Pixel Counting Resolution
  ,                                       !- Sky Diffuse Modeling Algorithm
  No,                                     !- Output External Shading Calculation Results
  No,                                     !- Disable Self-Shading Within Shading Zone Groups
  No;                                     !- Disable Self-Shading From Shading Zone Groups to Other Zones

OS:SurfaceConvectionAlgorithm:Outside,
  {c8b2ff33-4ea1-47a6-85a6-683633fdb645}, !- Handle
  DOE-2;                                  !- Algorithm

OS:SurfaceConvectionAlgorithm:Inside,
  {2a223c4f-7592-4a45-bc36-a1e26418bd9e}, !- Handle
  TARP;                                   !- Algorithm

OS:ZoneCapacitanceMultiplier:ResearchSpecial,
  {e2c9c653-9938-4b49-9841-43b42b51f7db}, !- Handle
  7,                                      !- Temperature Capacity Multiplier
  15,                                     !- Humidity Capacity Multiplier
  ;                                       !- Carbon Dioxide Capacity Multiplier

OS:ConvergenceLimits,
  {7f57b08d-b410-4661-b6a5-7827ecbeae58}, !- Handle
  0;                                      !- Minimum System Timestep {minutes}

OS:RunPeriod,
  {f0742f26-b424-4a2b-bc22-02c7214391d9}, !- Handle
  Run Period 1,                           !- Name
  1,                                      !- Begin Month
  1,                                      !- Begin Day of Month
  12,                                     !- End Month
  31,                                     !- End Day of Month
  ,                                       !- Use Weather File Holidays and Special Days
  ,                                       !- Use Weather File Daylight Saving Period
  ,                                       !- Apply Weekend Holiday Rule
  ,                                       !- Use Weather File Rain Indicators
  ,                                       !- Use Weather File Snow Indicators
  ;                                       !- Number of Times Runperiod to be Repeated

OS:PerformancePrecisionTradeoffs,
  {1cb53271-8a61-4779-bc63-98d6f1a1cf05}, !- Handle
  ,                                       !- Use Coil Direct Solutions
  CarrollMRT;                             !- Zone Radiant Exchange Algorithm

OS:WeatherFile,
  {5546f65c-34a3-4f75-b069-300bd3c3fdf7}, !- Handle
  Buffalo Niagara Intl Ap,                !- City
  NY,                                     !- State Province Region
  USA,                                    !- Country
  TMY3,                                   !- Data Source
  725280,                                 !- WMO Number
  42.93,                                  !- Latitude {deg}
  -78.73,                                 !- Longitude {deg}
  -5,                                     !- Time Zone {hr}
  215,                                    !- Elevation {m}
  /Users/nmoore/github/urbanopt-example-geojson-project/example_project/weather/USA_NY_Buffalo-Greater.Buffalo.Intl.AP.725280_TMY3.epw, !- Url
  6B50E0FF,                               !- Checksum
  ,                                       !- Start Date Actual Year
  Sunday;                                 !- Start Day of Week

OS:YearDescription,
  {892e2575-da67-4352-9de0-f0a23c4131d8}, !- Handle
  2007,                                   !- Calendar Year
  ,                                       !- Day of Week for Start Day
  ;                                       !- Is Leap Year

OS:Site,
  {a500a62d-08d6-455b-b43b-5a7c8e8fb37e}, !- Handle
  Buffalo Niagara Intl Ap_NY,             !- Name
  42.93,                                  !- Latitude {deg}
  -78.73,                                 !- Longitude {deg}
  -5,                                     !- Time Zone {hr}
  215,                                    !- Elevation {m}
  Suburbs,                                !- Terrain
  Yes;                                    !- Keep Site Location Information

OS:RunPeriodControl:DaylightSavingTime,
  {de618f04-05e8-48d1-94ea-803a48b06474}, !- Handle
  Mar 12,                                 !- Start Date
  Nov 5;                                  !- End Date

OS:Site:GroundTemperature:Shallow,
  {73147b4b-992b-46c6-8adb-2dc1bf66c181}, !- Handle
  4.30207395723828,                       !- January Surface Ground Temperature {C}
  2.29327249652502,                       !- February Surface Ground Temperature {C}
  2.13240047156047,                       !- March Surface Ground Temperature {C}
  3.08567940719286,                       !- April Surface Ground Temperature {C}
  6.91256312497526,                       !- May Surface Ground Temperature {C}
  10.7216195949507,                       !- June Surface Ground Temperature {C}
  14.0238679822574,                       !- July Surface Ground Temperature {C}
  16.1157611184724,                       !- August Surface Ground Temperature {C}
  16.2934789303462,                       !- September Surface Ground Temperature {C}
  14.5920754632847,                       !- October Surface Ground Temperature {C}
  11.374036348653,                        !- November Surface Ground Temperature {C}
  7.68182621661674;                       !- December Surface Ground Temperature {C}

OS:ThermalZone,
  {3656191f-7f35-419c-b716-632be16bb11f}, !- Handle
  conditioned space,                      !- Name
  1,                                      !- Multiplier
  ,                                       !- Ceiling Height {m}
  346.03186535424,                        !- Volume {m3}
  ,                                       !- Floor Area {m2}
  ,                                       !- Zone Inside Convection Algorithm
  ,                                       !- Zone Outside Convection Algorithm
  ,                                       !- Zone Conditioning Equipment List Name
  {eeb1660e-c1dc-49a8-9e92-2fb41f80af49}, !- Zone Air Inlet Port List
  {b8567b36-542b-4625-bfb0-c2e1d0a6084d}, !- Zone Air Exhaust Port List
  {208762f3-6c44-4566-bb17-cd34177c4816}, !- Zone Air Node Name
  {da09ad93-0295-484a-bbb3-b38f65f7771c}, !- Zone Return Air Port List
  ,                                       !- Primary Daylighting Control Name
  ,                                       !- Fraction of Zone Controlled by Primary Daylighting Control
  ,                                       !- Secondary Daylighting Control Name
  ,                                       !- Fraction of Zone Controlled by Secondary Daylighting Control
  ,                                       !- Illuminance Map Name
  ,                                       !- Group Rendering Name
  {18e385db-c0b5-4582-b6b6-331cc1be4049}, !- Thermostat Name
  No;                                     !- Use Ideal Air Loads

OS:Node,
  {3d97b97f-d55b-4f0e-8510-aab08224a45a}, !- Handle
  Node 1,                                 !- Name
  {208762f3-6c44-4566-bb17-cd34177c4816}, !- Inlet Port
  ;                                       !- Outlet Port

OS:Connection,
  {208762f3-6c44-4566-bb17-cd34177c4816}, !- Handle
  {3656191f-7f35-419c-b716-632be16bb11f}, !- Source Object
  11,                                     !- Outlet Port
  {3d97b97f-d55b-4f0e-8510-aab08224a45a}, !- Target Object
  2;                                      !- Inlet Port

OS:PortList,
  {eeb1660e-c1dc-49a8-9e92-2fb41f80af49}, !- Handle
  {3656191f-7f35-419c-b716-632be16bb11f}, !- HVAC Component
  {c99ef2ee-4a2f-4ca8-b183-d585a6706fbb}; !- Port 1

OS:PortList,
  {b8567b36-542b-4625-bfb0-c2e1d0a6084d}, !- Handle
  {3656191f-7f35-419c-b716-632be16bb11f}; !- HVAC Component

OS:PortList,
  {da09ad93-0295-484a-bbb3-b38f65f7771c}, !- Handle
  {3656191f-7f35-419c-b716-632be16bb11f}, !- HVAC Component
  {6356a740-bb5b-4dc3-8072-07a846ce2b18}; !- Port 1

OS:Sizing:Zone,
  {851818c7-9b18-41b9-a39b-8afa31b2efa2}, !- Handle
  {3656191f-7f35-419c-b716-632be16bb11f}, !- Zone or ZoneList Name
  SupplyAirTemperature,                   !- Zone Cooling Design Supply Air Temperature Input Method
  14,                                     !- Zone Cooling Design Supply Air Temperature {C}
  11.11,                                  !- Zone Cooling Design Supply Air Temperature Difference {deltaC}
  SupplyAirTemperature,                   !- Zone Heating Design Supply Air Temperature Input Method
  40,                                     !- Zone Heating Design Supply Air Temperature {C}
  11.11,                                  !- Zone Heating Design Supply Air Temperature Difference {deltaC}
  0.0085,                                 !- Zone Cooling Design Supply Air Humidity Ratio {kg-H2O/kg-air}
  0.008,                                  !- Zone Heating Design Supply Air Humidity Ratio {kg-H2O/kg-air}
  ,                                       !- Zone Heating Sizing Factor
  ,                                       !- Zone Cooling Sizing Factor
  DesignDay,                              !- Cooling Design Air Flow Method
  ,                                       !- Cooling Design Air Flow Rate {m3/s}
  ,                                       !- Cooling Minimum Air Flow per Zone Floor Area {m3/s-m2}
  ,                                       !- Cooling Minimum Air Flow {m3/s}
  ,                                       !- Cooling Minimum Air Flow Fraction
  DesignDay,                              !- Heating Design Air Flow Method
  ,                                       !- Heating Design Air Flow Rate {m3/s}
  ,                                       !- Heating Maximum Air Flow per Zone Floor Area {m3/s-m2}
  ,                                       !- Heating Maximum Air Flow {m3/s}
  ,                                       !- Heating Maximum Air Flow Fraction
  No,                                     !- Account for Dedicated Outdoor Air System
  NeutralSupplyAir,                       !- Dedicated Outdoor Air System Control Strategy
  autosize,                               !- Dedicated Outdoor Air Low Setpoint Temperature for Design {C}
  autosize,                               !- Dedicated Outdoor Air High Setpoint Temperature for Design {C}
  Sensible Load Only No Latent Load,      !- Zone Load Sizing Method
  HumidityRatioDifference,                !- Zone Latent Cooling Design Supply Air Humidity Ratio Input Method
  ,                                       !- Zone Dehumidification Design Supply Air Humidity Ratio {kgWater/kgDryAir}
  0.005,                                  !- Zone Cooling Design Supply Air Humidity Ratio Difference {kgWater/kgDryAir}
  HumidityRatioDifference,                !- Zone Latent Heating Design Supply Air Humidity Ratio Input Method
  ,                                       !- Zone Humidification Design Supply Air Humidity Ratio {kgWater/kgDryAir}
  0.005,                                  !- Zone Humidification Design Supply Air Humidity Ratio Difference {kgWater/kgDryAir}
  ,                                       !- Zone Humidistat Dehumidification Set Point Schedule Name
  ,                                       !- Zone Humidistat Humidification Set Point Schedule Name
  ,                                       !- Design Zone Air Distribution Effectiveness in Cooling Mode
  ,                                       !- Design Zone Air Distribution Effectiveness in Heating Mode
  ,                                       !- Design Zone Secondary Recirculation Fraction {dimensionless}
  ,                                       !- Design Minimum Zone Ventilation Efficiency {dimensionless}
  Coincident;                             !- Sizing Option

OS:ZoneHVAC:EquipmentList,
  {216e2992-3ed3-43b1-a52c-1993e4622632}, !- Handle
  Zone HVAC Equipment List 1,             !- Name
  {3656191f-7f35-419c-b716-632be16bb11f}, !- Thermal Zone
  ,                                       !- Load Distribution Scheme
  {cd2eb1c3-2b6a-461b-8673-41f32a4aa887}, !- Zone Equipment 1
  1,                                      !- Zone Equipment Cooling Sequence 1
  1,                                      !- Zone Equipment Heating or No-Load Sequence 1
  {130ad1c4-918e-420e-908b-423ca664b93d}, !- Zone Equipment Sequential Cooling Fraction Schedule Name 1
  {feb1fd39-ea3a-4da3-a689-b8df5deecd47}; !- Zone Equipment Sequential Heating Fraction Schedule Name 1

OS:AdditionalProperties,
  {18768a04-e30f-4870-bcfc-ab0d3b39ef8a}, !- Handle
  {3656191f-7f35-419c-b716-632be16bb11f}, !- Object Name
  ObjectType,                             !- Feature Name 1
  String,                                 !- Feature Data Type 1
  conditioned space;                      !- Feature Value 1

OS:Space,
  {04e22b2c-b12d-4416-b72f-f6772a7ed450}, !- Handle
  conditioned space 1,                    !- Name
  ,                                       !- Space Type Name
  ,                                       !- Default Construction Set Name
  ,                                       !- Default Schedule Set Name
  ,                                       !- Direction of Relative North {deg}
  ,                                       !- X Origin {m}
  ,                                       !- Y Origin {m}
  ,                                       !- Z Origin {m}
  ,                                       !- Building Story Name
  {3656191f-7f35-419c-b716-632be16bb11f}, !- Thermal Zone Name
  ,                                       !- Part of Total Floor Area
  ,                                       !- Design Specification Outdoor Air Object Name
  ,                                       !- Building Unit Name
  346.03186535424;                        !- Volume {m3}

OS:Schedule:Ruleset,
  {33488644-71e0-44d2-b3fe-ea56d9cf4cdb}, !- Handle
  heating setpoint,                       !- Name
  {170956b4-de6e-4366-aff4-8f625f607726}, !- Schedule Type Limits Name
  {4652f5f9-0716-404d-98b8-cd4baa4ad92d}; !- Default Day Schedule Name

OS:Schedule:Day,
  {4652f5f9-0716-404d-98b8-cd4baa4ad92d}, !- Handle
  heating setpoint default day,           !- Name
  {170956b4-de6e-4366-aff4-8f625f607726}, !- Schedule Type Limits Name
  ,                                       !- Interpolate to Timestep
  24,                                     !- Hour 1
  0,                                      !- Minute 1
  0;                                      !- Value Until Time 1

OS:Schedule:Rule,
  {6943a50f-789a-4c76-a233-ab5e696a36a5}, !- Handle
  heating setpoint allday rule,           !- Name
  {33488644-71e0-44d2-b3fe-ea56d9cf4cdb}, !- Schedule Ruleset Name
  0,                                      !- Rule Order
  {edf9343b-5af0-4fd8-9eaa-17966e8266da}, !- Day Schedule Name
  Yes,                                    !- Apply Sunday
  Yes,                                    !- Apply Monday
  Yes,                                    !- Apply Tuesday
  Yes,                                    !- Apply Wednesday
  Yes,                                    !- Apply Thursday
  Yes,                                    !- Apply Friday
  Yes,                                    !- Apply Saturday
  DateRange,                              !- Date Specification Type
  1,                                      !- Start Month
  1,                                      !- Start Day
  12,                                     !- End Month
  31;                                     !- End Day

OS:Schedule:Day,
  {edf9343b-5af0-4fd8-9eaa-17966e8266da}, !- Handle
  heating setpoint day,                   !- Name
  {170956b4-de6e-4366-aff4-8f625f607726}, !- Schedule Type Limits Name
  ,                                       !- Interpolate to Timestep
  24,                                     !- Hour 1
  0,                                      !- Minute 1
  20;                                     !- Value Until Time 1

OS:Schedule:Ruleset,
  {47d5b6f9-e488-4dec-a808-251fa5664831}, !- Handle
  cooling setpoint,                       !- Name
  {170956b4-de6e-4366-aff4-8f625f607726}, !- Schedule Type Limits Name
  {b8e17d44-d704-442e-a57e-a77082849ae1}; !- Default Day Schedule Name

OS:Schedule:Day,
  {b8e17d44-d704-442e-a57e-a77082849ae1}, !- Handle
  cooling setpoint default day,           !- Name
  {170956b4-de6e-4366-aff4-8f625f607726}, !- Schedule Type Limits Name
  ,                                       !- Interpolate to Timestep
  24,                                     !- Hour 1
  0,                                      !- Minute 1
  0;                                      !- Value Until Time 1

OS:Schedule:Rule,
  {509ab618-4154-4333-8e87-9048b4bd86b4}, !- Handle
  cooling setpoint allday rule,           !- Name
  {47d5b6f9-e488-4dec-a808-251fa5664831}, !- Schedule Ruleset Name
  0,                                      !- Rule Order
  {6eb0e51d-2660-4af7-aba3-92b9b60c3dcd}, !- Day Schedule Name
  Yes,                                    !- Apply Sunday
  Yes,                                    !- Apply Monday
  Yes,                                    !- Apply Tuesday
  Yes,                                    !- Apply Wednesday
  Yes,                                    !- Apply Thursday
  Yes,                                    !- Apply Friday
  Yes,                                    !- Apply Saturday
  DateRange,                              !- Date Specification Type
  1,                                      !- Start Month
  1,                                      !- Start Day
  12,                                     !- End Month
  31;                                     !- End Day

OS:Schedule:Day,
  {6eb0e51d-2660-4af7-aba3-92b9b60c3dcd}, !- Handle
  cooling setpoint day,                   !- Name
  {170956b4-de6e-4366-aff4-8f625f607726}, !- Schedule Type Limits Name
  ,                                       !- Interpolate to Timestep
  24,                                     !- Hour 1
  0,                                      !- Minute 1
  25.5555555555556;                       !- Value Until Time 1

OS:ThermostatSetpoint:DualSetpoint,
  {18e385db-c0b5-4582-b6b6-331cc1be4049}, !- Handle
  conditioned space temperature setpoint, !- Name
  {33488644-71e0-44d2-b3fe-ea56d9cf4cdb}, !- Heating Setpoint Temperature Schedule Name
  {47d5b6f9-e488-4dec-a808-251fa5664831}, !- Cooling Setpoint Temperature Schedule Name
  0;                                      !- Temperature Difference Between Cutout And Setpoint {deltaC}

OS:ScheduleTypeLimits,
  {170956b4-de6e-4366-aff4-8f625f607726}, !- Handle
  Temperature,                            !- Name
  ,                                       !- Lower Limit Value
  ,                                       !- Upper Limit Value
  Continuous,                             !- Numeric Type
  Temperature;                            !- Unit Type

OS:Surface,
  {633af868-ba97-4fd6-900d-f19ff8234029}, !- Handle
  Roof1,                                  !- Name
  RoofCeiling,                            !- Surface Type
  {26f8103c-5443-4648-9bc5-8be56df468f2}, !- Construction Name
  {04e22b2c-b12d-4416-b72f-f6772a7ed450}, !- Space Name
  Outdoors,                               !- Outside Boundary Condition
  ,                                       !- Outside Boundary Condition Object
  SunExposed,                             !- Sun Exposure
  WindExposed,                            !- Wind Exposure
  ,                                       !- View Factor to Ground
  ,                                       !- Number of Vertices
  -0.687372254093932, 8.21936148257969, 3.048, !- X,Y,Z Vertex 1 {m}
  -0.687372254093932, 0.252936645502524, 7.03121241853859, !- X,Y,Z Vertex 2 {m}
  8.21936148257969, 0.252936645502514, 7.03121241853859, !- X,Y,Z Vertex 3 {m}
  8.21936148257969, 8.21936148257968, 3.048; !- X,Y,Z Vertex 4 {m}

OS:AdditionalProperties,
  {22a05ece-2a09-499d-9f59-cd1fd25c5ba1}, !- Handle
  {633af868-ba97-4fd6-900d-f19ff8234029}, !- Object Name
  Length,                                 !- Feature Name 1
  Double,                                 !- Feature Data Type 1
  29.221567377538118,                     !- Feature Value 1
  Width,                                  !- Feature Name 2
  Double,                                 !- Feature Data Type 2
  29.221567377538118,                     !- Feature Value 2
  Azimuth,                                !- Feature Name 3
  Integer,                                !- Feature Data Type 3
  0,                                      !- Feature Value 3
  Tilt,                                   !- Feature Name 4
  Double,                                 !- Feature Data Type 4
  0.5,                                    !- Feature Value 4
  SurfaceType,                            !- Feature Name 5
  String,                                 !- Feature Data Type 5
  Roof;                                   !- Feature Value 5

OS:Material,
  {071c09fc-1858-4ad9-b409-d19c86215999}, !- Handle
  asphalt or fiberglass shingles,         !- Name
  Rough,                                  !- Roughness
  0.00635,                                !- Thickness {m}
  0.162714,                               !- Conductivity {W/m-K}
  1121.4,                                 !- Density {kg/m3}
  1465.45,                                !- Specific Heat {J/kg-K}
  0.9,                                    !- Thermal Absorptance
  0.85,                                   !- Solar Absorptance
  0.85;                                   !- Visible Absorptance

OS:Material,
  {fd1f0a6c-7ff1-401f-b8c4-6b45ca05455b}, !- Handle
  roof stud and cavity,                   !- Name
  Rough,                                  !- Roughness
  0.0889,                                 !- Thickness {m}
  0.468249472857624,                      !- Conductivity {W/m-K}
  50.32683,                               !- Density {kg/m3}
  1063.80987585548,                       !- Specific Heat {J/kg-K}
  0.9,                                    !- Thermal Absorptance
  0.7,                                    !- Solar Absorptance
  0.7;                                    !- Visible Absorptance

OS:Material,
  {60520f00-03fc-4b34-8c25-99ee0bde7d29}, !- Handle
  gypsum board,                           !- Name
  Rough,                                  !- Roughness
  0.00254,                                !- Thickness {m}
  0.1602906,                              !- Conductivity {W/m-K}
  801,                                    !- Density {kg/m3}
  837.4,                                  !- Specific Heat {J/kg-K}
  0.9,                                    !- Thermal Absorptance
  0.6,                                    !- Solar Absorptance
  0.6;                                    !- Visible Absorptance

OS:Construction,
  {26f8103c-5443-4648-9bc5-8be56df468f2}, !- Handle
  Roof1 construction,                     !- Name
  ,                                       !- Surface Rendering Name
  {071c09fc-1858-4ad9-b409-d19c86215999}, !- Layer 1
  {fd1f0a6c-7ff1-401f-b8c4-6b45ca05455b}, !- Layer 2
  {60520f00-03fc-4b34-8c25-99ee0bde7d29}; !- Layer 3

OS:Surface,
  {5b61f32e-4a1a-4cfb-86fc-7797fdd55d74}, !- Handle
  Roof2,                                  !- Name
  RoofCeiling,                            !- Surface Type
  {bd33045b-baef-400d-8481-81a7f9ed406b}, !- Construction Name
  {04e22b2c-b12d-4416-b72f-f6772a7ed450}, !- Space Name
  Outdoors,                               !- Outside Boundary Condition
  ,                                       !- Outside Boundary Condition Object
  SunExposed,                             !- Sun Exposure
  WindExposed,                            !- Wind Exposure
  ,                                       !- View Factor to Ground
  ,                                       !- Number of Vertices
  0.687372254093932, -8.21936148257968, 3.048, !- X,Y,Z Vertex 1 {m}
  0.687372254093932, -0.252936645502525, 7.03121241853859, !- X,Y,Z Vertex 2 {m}
  -8.21936148257969, -0.252936645502525, 7.03121241853859, !- X,Y,Z Vertex 3 {m}
  -8.21936148257969, -8.21936148257968, 3.048; !- X,Y,Z Vertex 4 {m}

OS:AdditionalProperties,
  {d13af42f-5f82-4075-b7ac-141d1b605d03}, !- Handle
  {5b61f32e-4a1a-4cfb-86fc-7797fdd55d74}, !- Object Name
  Length,                                 !- Feature Name 1
  Double,                                 !- Feature Data Type 1
  29.221567377538118,                     !- Feature Value 1
  Width,                                  !- Feature Name 2
  Double,                                 !- Feature Data Type 2
  29.221567377538118,                     !- Feature Value 2
  Azimuth,                                !- Feature Name 3
  Integer,                                !- Feature Data Type 3
  180,                                    !- Feature Value 3
  Tilt,                                   !- Feature Name 4
  Double,                                 !- Feature Data Type 4
  0.5,                                    !- Feature Value 4
  SurfaceType,                            !- Feature Name 5
  String,                                 !- Feature Data Type 5
  Roof;                                   !- Feature Value 5

OS:Construction,
  {bd33045b-baef-400d-8481-81a7f9ed406b}, !- Handle
  Roof2 construction,                     !- Name
  ,                                       !- Surface Rendering Name
  {071c09fc-1858-4ad9-b409-d19c86215999}, !- Layer 1
  {fd1f0a6c-7ff1-401f-b8c4-6b45ca05455b}, !- Layer 2
  {60520f00-03fc-4b34-8c25-99ee0bde7d29}; !- Layer 3

OS:Surface,
  {ae83f075-b9fe-457d-b603-9728669a1e98}, !- Handle
  Wall1,                                  !- Name
  Wall,                                   !- Surface Type
  {65d36916-7f6b-4e7d-9c8a-1b7c1d7d0f5c}, !- Construction Name
  {04e22b2c-b12d-4416-b72f-f6772a7ed450}, !- Space Name
  Outdoors,                               !- Outside Boundary Condition
  ,                                       !- Outside Boundary Condition Object
  SunExposed,                             !- Sun Exposure
  WindExposed,                            !- Wind Exposure
  ,                                       !- View Factor to Ground
  ,                                       !- Number of Vertices
  -5.82835765409393, 8.21936148257969, 0.6096, !- X,Y,Z Vertex 1 {m}
  -5.82835765409393, 8.21936148257969, 5.4864, !- X,Y,Z Vertex 2 {m}
  -1.61640265409393, 8.21936148257969, 5.4864, !- X,Y,Z Vertex 3 {m}
  -1.61640265409393, 8.21936148257969, 0.6096; !- X,Y,Z Vertex 4 {m}

OS:AdditionalProperties,
  {7e4c34e9-04cd-45af-87d5-21857ca531e5}, !- Handle
  {ae83f075-b9fe-457d-b603-9728669a1e98}, !- Object Name
  Length,                                 !- Feature Name 1
  Double,                                 !- Feature Data Type 1
  13.81875,                               !- Feature Value 1
  Azimuth,                                !- Feature Name 2
  Integer,                                !- Feature Data Type 2
  0,                                      !- Feature Value 2
  Tilt,                                   !- Feature Name 3
  Double,                                 !- Feature Data Type 3
  90,                                     !- Feature Value 3
  SurfaceType,                            !- Feature Name 4
  String,                                 !- Feature Data Type 4
  Wall;                                   !- Feature Value 4

OS:Material,
  {f5ab987b-06d9-452f-b5c3-9ee5d88bf28a}, !- Handle
  wood siding,                            !- Name
  Rough,                                  !- Roughness
  0.0254,                                 !- Thickness {m}
  0.1024175,                              !- Conductivity {W/m-K}
  544.68,                                 !- Density {kg/m3}
  1172.36,                                !- Specific Heat {J/kg-K}
  0.9,                                    !- Thermal Absorptance
  0.7,                                    !- Solar Absorptance
  0.7;                                    !- Visible Absorptance

OS:Material,
  {1c105539-2e5e-4f0a-af58-d1c4e57a6d87}, !- Handle
  osb sheathing 0.5 in.,                  !- Name
  Rough,                                  !- Roughness
  0.0127,                                 !- Thickness {m}
  0.1154577,                              !- Conductivity {W/m-K}
  512.64,                                 !- Density {kg/m3}
  1214.23,                                !- Specific Heat {J/kg-K}
  0.9,                                    !- Thermal Absorptance
  0.7,                                    !- Solar Absorptance
  0.7;                                    !- Visible Absorptance

OS:Material,
  {a3462509-8a39-4bb3-a811-867a85ea8840}, !- Handle
  wall stud and cavity,                   !- Name
  Rough,                                  !- Roughness
  0.1397,                                 !- Thickness {m}
  0.0929021674204099,                     !- Conductivity {W/m-K}
  139.0536,                               !- Density {kg/m3}
  1170.23755760369,                       !- Specific Heat {J/kg-K}
  0.9,                                    !- Thermal Absorptance
  0.7,                                    !- Solar Absorptance