
OS:Version,
  {44a30694-361c-4e79-a9ed-8476030daa3a}, !- Handle
  3.9.0;                                  !- Version Identifier

OS:SimulationControl,
  {023b9648-bacd-417d-b18e-8d6b64e962c0}, !- Handle
  ,                                       !- Do Zone Sizing Calculation
  ,                                       !- Do System Sizing Calculation
  ,                                       !- Do Plant Sizing Calculation
  No;                                     !- Run Simulation for Sizing Periods

OS:Timestep,
  {de138f69-14c7-4b47-93e2-f47f8c7bcd0b}, !- Handle
  1;                                      !- Number of Timesteps per Hour

OS:ShadowCalculation,
  {c223af10-dbaa-4b97-9ac0-2fca80fad214}, !- Handle
  PolygonClipping,                        !- Shading Calculation Method
  ,                                       !- Shading Calculation Update Frequency Method
  20,                                     !- Shading Calculation Update Frequency
  200,                                    !- Maximum Figures in Shadow Overlap Calculations
  ,                                       !- Polygon Clipping Algorithm
  512,                                    !- Pixel Counting Resolution
  ,                                       !- Sky Diffuse Modeling Algorithm
  No,                                     !- Output External Shading Calculation Results
  No,                                     !- Disable Self-Shading Within Shading Zone Groups
  No;                                     !- Disable Self-Shading From Shading Zone Groups to Other Zones

OS:SurfaceConvectionAlgorithm:Outside,
  {e14adcff-3702-4c3f-8b41-0710d1fda391}, !- Handle
  DOE-2;                                  !- Algorithm

OS:SurfaceConvectionAlgorithm:Inside,
  {8d5cf5c3-45dd-40bf-af1c-cd1336937f09}, !- Handle
  TARP;                                   !- Algorithm

OS:ZoneCapacitanceMultiplier:ResearchSpecial,
  {d9af893e-b4b4-424d-b438-41623d94d94b}, !- Handle
  7,                                      !- Temperature Capacity Multiplier
  15,                                     !- Humidity Capacity Multiplier
  ;                                       !- Carbon Dioxide Capacity Multiplier

OS:ConvergenceLimits,
  {5cb28d9c-0cb1-4e57-92ef-87501ae81404}, !- Handle
  0;                                      !- Minimum System Timestep {minutes}

OS:RunPeriod,
  {145b38f9-1b1f-4e9f-ba5b-05e2762db384}, !- Handle
  Run Period 1,                           !- Name
  1,                                      !- Begin Month
  1,                                      !- Begin Day of Month
  12,                                     !- End Month
  31,                                     !- End Day of Month
  ,                                       !- Use Weather File Holidays and Special Days
  ,                                       !- Use Weather File Daylight Saving Period
  ,                                       !- Apply Weekend Holiday Rule
  ,                                       !- Use Weather File Rain Indicators
  ,                                       !- Use Weather File Snow Indicators
  ;                                       !- Number of Times Runperiod to be Repeated

OS:PerformancePrecisionTradeoffs,
  {53ad295a-b142-4f4a-b504-78bf0427410d}, !- Handle
  ,                                       !- Use Coil Direct Solutions
  CarrollMRT;                             !- Zone Radiant Exchange Algorithm

OS:WeatherFile,
  {472fc752-6705-45e2-9de9-a1e6ed02f764}, !- Handle
  Buffalo Niagara Intl Ap,                !- City
  NY,                                     !- State Province Region
  USA,                                    !- Country
  TMY3,                                   !- Data Source
  725280,                                 !- WMO Number
  42.93,                                  !- Latitude {deg}
  -78.73,                                 !- Longitude {deg}
  -5,                                     !- Time Zone {hr}
  215,                                    !- Elevation {m}
  /Users/nmoore/github/urbanopt-example-geojson-project/example_project/weather/USA_NY_Buffalo-Greater.Buffalo.Intl.AP.725280_TMY3.epw, !- Url
  6B50E0FF,                               !- Checksum
  ,                                       !- Start Date Actual Year
  Sunday;                                 !- Start Day of Week

OS:YearDescription,
  {ab70cb51-c9b4-4b2c-8480-f5fb499901cb}, !- Handle
  2007,                                   !- Calendar Year
  ,                                       !- Day of Week for Start Day
  ;                                       !- Is Leap Year

OS:Site,
  {88beaba8-b368-44af-8059-f7442b482356}, !- Handle
  Buffalo Niagara Intl Ap_NY,             !- Name
  42.93,                                  !- Latitude {deg}
  -78.73,                                 !- Longitude {deg}
  -5,                                     !- Time Zone {hr}
  215,                                    !- Elevation {m}
  Suburbs,                                !- Terrain
  Yes;                                    !- Keep Site Location Information

OS:RunPeriodControl:DaylightSavingTime,
  {fdbed7bd-7420-4f3c-917d-f96c73a3e753}, !- Handle
  Mar 12,                                 !- Start Date
  Nov 5;                                  !- End Date

OS:Site:GroundTemperature:Shallow,
  {19a2f887-6c2a-45fd-b36d-582e837082b5}, !- Handle
  4.30207395723828,                       !- January Surface Ground Temperature {C}
  2.29327249652502,                       !- February Surface Ground Temperature {C}
  2.13240047156047,                       !- March Surface Ground Temperature {C}
  3.08567940719286,                       !- April Surface Ground Temperature {C}
  6.91256312497526,                       !- May Surface Ground Temperature {C}
  10.7216195949507,                       !- June Surface Ground Temperature {C}
  14.0238679822574,                       !- July Surface Ground Temperature {C}
  16.1157611184724,                       !- August Surface Ground Temperature {C}
  16.2934789303462,                       !- September Surface Ground Temperature {C}
  14.5920754632847,                       !- October Surface Ground Temperature {C}
  11.374036348653,                        !- November Surface Ground Temperature {C}
  7.68182621661674;                       !- December Surface Ground Temperature {C}

OS:ThermalZone,
  {40b46b43-aa36-47ee-a599-6a36326507e7}, !- Handle
  conditioned space,                      !- Name
  1,                                      !- Multiplier
  ,                                       !- Ceiling Height {m}
  346.03186535424,                        !- Volume {m3}
  ,                                       !- Floor Area {m2}
  ,                                       !- Zone Inside Convection Algorithm
  ,                                       !- Zone Outside Convection Algorithm
  ,                                       !- Zone Conditioning Equipment List Name
  {8f93da9a-e348-4f5b-b4a9-5cf56308b6bf}, !- Zone Air Inlet Port List
  {e3f4d907-b47c-4a9c-b2a4-06e86ea51e87}, !- Zone Air Exhaust Port List
  {6b685c40-5bcb-4fea-afe0-032cf89dec6b}, !- Zone Air Node Name
  {afae26b2-cb87-4654-816c-802f60651ff4}, !- Zone Return Air Port List
  ,                                       !- Primary Daylighting Control Name
  ,                                       !- Fraction of Zone Controlled by Primary Daylighting Control
  ,                                       !- Secondary Daylighting Control Name
  ,                                       !- Fraction of Zone Controlled by Secondary Daylighting Control
  ,                                       !- Illuminance Map Name
  ,                                       !- Group Rendering Name
  {1f64ba1e-5976-4b2c-9cde-c1cb85f70322}, !- Thermostat Name
  No;                                     !- Use Ideal Air Loads

OS:Node,
  {695f9475-83e8-4a63-9e00-33055342b561}, !- Handle
  Node 1,                                 !- Name
  {6b685c40-5bcb-4fea-afe0-032cf89dec6b}, !- Inlet Port
  ;                                       !- Outlet Port

OS:Connection,
  {6b685c40-5bcb-4fea-afe0-032cf89dec6b}, !- Handle
  {40b46b43-aa36-47ee-a599-6a36326507e7}, !- Source Object
  11,                                     !- Outlet Port
  {695f9475-83e8-4a63-9e00-33055342b561}, !- Target Object
  2;                                      !- Inlet Port

OS:PortList,
  {8f93da9a-e348-4f5b-b4a9-5cf56308b6bf}, !- Handle
  {40b46b43-aa36-47ee-a599-6a36326507e7}, !- HVAC Component
  {36023eda-9a29-4389-8a35-774acadb65ba}; !- Port 1

OS:PortList,
  {e3f4d907-b47c-4a9c-b2a4-06e86ea51e87}, !- Handle
  {40b46b43-aa36-47ee-a599-6a36326507e7}; !- HVAC Component

OS:PortList,
  {afae26b2-cb87-4654-816c-802f60651ff4}, !- Handle
  {40b46b43-aa36-47ee-a599-6a36326507e7}, !- HVAC Component
  {e4e5067e-18fc-40b8-ae49-6637aabd2ac7}; !- Port 1

OS:Sizing:Zone,
  {0670e7ae-2fd9-4e86-b539-8a9c1cf51269}, !- Handle
  {40b46b43-aa36-47ee-a599-6a36326507e7}, !- Zone or ZoneList Name
  SupplyAirTemperature,                   !- Zone Cooling Design Supply Air Temperature Input Method
  14,                                     !- Zone Cooling Design Supply Air Temperature {C}
  11.11,                                  !- Zone Cooling Design Supply Air Temperature Difference {deltaC}
  SupplyAirTemperature,                   !- Zone Heating Design Supply Air Temperature Input Method
  40,                                     !- Zone Heating Design Supply Air Temperature {C}
  11.11,                                  !- Zone Heating Design Supply Air Temperature Difference {deltaC}
  0.0085,                                 !- Zone Cooling Design Supply Air Humidity Ratio {kg-H2O/kg-air}
  0.008,                                  !- Zone Heating Design Supply Air Humidity Ratio {kg-H2O/kg-air}
  ,                                       !- Zone Heating Sizing Factor
  ,                                       !- Zone Cooling Sizing Factor
  DesignDay,                              !- Cooling Design Air Flow Method
  ,                                       !- Cooling Design Air Flow Rate {m3/s}
  ,                                       !- Cooling Minimum Air Flow per Zone Floor Area {m3/s-m2}
  ,                                       !- Cooling Minimum Air Flow {m3/s}
  ,                                       !- Cooling Minimum Air Flow Fraction
  DesignDay,                              !- Heating Design Air Flow Method
  ,                                       !- Heating Design Air Flow Rate {m3/s}
  ,                                       !- Heating Maximum Air Flow per Zone Floor Area {m3/s-m2}
  ,                                       !- Heating Maximum Air Flow {m3/s}
  ,                                       !- Heating Maximum Air Flow Fraction
  No,                                     !- Account for Dedicated Outdoor Air System
  NeutralSupplyAir,                       !- Dedicated Outdoor Air System Control Strategy
  autosize,                               !- Dedicated Outdoor Air Low Setpoint Temperature for Design {C}
  autosize,                               !- Dedicated Outdoor Air High Setpoint Temperature for Design {C}
  Sensible Load Only No Latent Load,      !- Zone Load Sizing Method
  HumidityRatioDifference,                !- Zone Latent Cooling Design Supply Air Humidity Ratio Input Method
  ,                                       !- Zone Dehumidification Design Supply Air Humidity Ratio {kgWater/kgDryAir}
  0.005,                                  !- Zone Cooling Design Supply Air Humidity Ratio Difference {kgWater/kgDryAir}
  HumidityRatioDifference,                !- Zone Latent Heating Design Supply Air Humidity Ratio Input Method
  ,                                       !- Zone Humidification Design Supply Air Humidity Ratio {kgWater/kgDryAir}
  0.005,                                  !- Zone Humidification Design Supply Air Humidity Ratio Difference {kgWater/kgDryAir}
  ,                                       !- Zone Humidistat Dehumidification Set Point Schedule Name
  ,                                       !- Zone Humidistat Humidification Set Point Schedule Name
  ,                                       !- Design Zone Air Distribution Effectiveness in Cooling Mode
  ,                                       !- Design Zone Air Distribution Effectiveness in Heating Mode
  ,                                       !- Design Zone Secondary Recirculation Fraction {dimensionless}
  ,                                       !- Design Minimum Zone Ventilation Efficiency {dimensionless}
  Coincident;                             !- Sizing Option

OS:ZoneHVAC:EquipmentList,
  {b39dc4ac-2506-48d6-8a30-e263945aac1b}, !- Handle
  Zone HVAC Equipment List 1,             !- Name
  {40b46b43-aa36-47ee-a599-6a36326507e7}, !- Thermal Zone
  ,                                       !- Load Distribution Scheme
  {6c5dd728-038d-4baf-a0c3-531b6db97ce6}, !- Zone Equipment 1
  1,                                      !- Zone Equipment Cooling Sequence 1
  1,                                      !- Zone Equipment Heating or No-Load Sequence 1
  {5b7cb7df-b1d3-4030-8804-5c74a00c96c3}, !- Zone Equipment Sequential Cooling Fraction Schedule Name 1
  {abc09b40-4aeb-46a4-b180-b558a00ce056}; !- Zone Equipment Sequential Heating Fraction Schedule Name 1

OS:AdditionalProperties,
  {48e73e68-f9c9-4c51-8d7c-06ea3bda018e}, !- Handle
  {40b46b43-aa36-47ee-a599-6a36326507e7}, !- Object Name
  ObjectType,                             !- Feature Name 1
  String,                                 !- Feature Data Type 1
  conditioned space;                      !- Feature Value 1

OS:Space,
  {0442fd08-3463-43f8-8670-3d70cdc92d10}, !- Handle
  conditioned space 1,                    !- Name
  ,                                       !- Space Type Name
  ,                                       !- Default Construction Set Name
  ,                                       !- Default Schedule Set Name
  ,                                       !- Direction of Relative North {deg}
  ,                                       !- X Origin {m}
  ,                                       !- Y Origin {m}
  ,                                       !- Z Origin {m}
  ,                                       !- Building Story Name
  {40b46b43-aa36-47ee-a599-6a36326507e7}, !- Thermal Zone Name
  ,                                       !- Part of Total Floor Area
  ,                                       !- Design Specification Outdoor Air Object Name
  ,                                       !- Building Unit Name
  346.03186535424;                        !- Volume {m3}

OS:Schedule:Ruleset,
  {fd6dcd7d-ded8-445d-b49a-044287fbf243}, !- Handle
  heating setpoint,                       !- Name
  {2931f158-84ac-46fd-a6f1-1a8c23b350f8}, !- Schedule Type Limits Name
  {6794b935-c614-4830-b8d7-ea314d9f460e}; !- Default Day Schedule Name

OS:Schedule:Day,
  {6794b935-c614-4830-b8d7-ea314d9f460e}, !- Handle
  heating setpoint default day,           !- Name
  {2931f158-84ac-46fd-a6f1-1a8c23b350f8}, !- Schedule Type Limits Name
  ,                                       !- Interpolate to Timestep
  24,                                     !- Hour 1
  0,                                      !- Minute 1
  0;                                      !- Value Until Time 1

OS:Schedule:Rule,
  {fc290733-e375-41da-93eb-66614ad30ce4}, !- Handle
  heating setpoint allday rule,           !- Name
  {fd6dcd7d-ded8-445d-b49a-044287fbf243}, !- Schedule Ruleset Name
  0,                                      !- Rule Order
  {b13ffe16-724d-4ab1-8feb-f81dc5a110dc}, !- Day Schedule Name
  Yes,                                    !- Apply Sunday
  Yes,                                    !- Apply Monday
  Yes,                                    !- Apply Tuesday
  Yes,                                    !- Apply Wednesday
  Yes,                                    !- Apply Thursday
  Yes,                                    !- Apply Friday
  Yes,                                    !- Apply Saturday
  DateRange,                              !- Date Specification Type
  1,                                      !- Start Month
  1,                                      !- Start Day
  12,                                     !- End Month
  31;                                     !- End Day

OS:Schedule:Day,
  {b13ffe16-724d-4ab1-8feb-f81dc5a110dc}, !- Handle
  heating setpoint day,                   !- Name
  {2931f158-84ac-46fd-a6f1-1a8c23b350f8}, !- Schedule Type Limits Name
  ,                                       !- Interpolate to Timestep
  24,                                     !- Hour 1
  0,                                      !- Minute 1
  20;                                     !- Value Until Time 1

OS:Schedule:Ruleset,
  {cf341feb-31fe-4118-98ca-0bdf089385f1}, !- Handle
  cooling setpoint,                       !- Name
  {2931f158-84ac-46fd-a6f1-1a8c23b350f8}, !- Schedule Type Limits Name
  {0cd25433-6d4b-4839-b22a-a3c38a88fac7}; !- Default Day Schedule Name

OS:Schedule:Day,
  {0cd25433-6d4b-4839-b22a-a3c38a88fac7}, !- Handle
  cooling setpoint default day,           !- Name
  {2931f158-84ac-46fd-a6f1-1a8c23b350f8}, !- Schedule Type Limits Name
  ,                                       !- Interpolate to Timestep
  24,                                     !- Hour 1
  0,                                      !- Minute 1
  0;                                      !- Value Until Time 1

OS:Schedule:Rule,
  {d3ccaadd-4bab-4176-8c30-f0994c1166b0}, !- Handle
  cooling setpoint allday rule,           !- Name
  {cf341feb-31fe-4118-98ca-0bdf089385f1}, !- Schedule Ruleset Name
  0,                                      !- Rule Order
  {a78e1498-35d1-419f-8c9a-09af3c51dd82}, !- Day Schedule Name
  Yes,                                    !- Apply Sunday
  Yes,                                    !- Apply Monday
  Yes,                                    !- Apply Tuesday
  Yes,                                    !- Apply Wednesday
  Yes,                                    !- Apply Thursday
  Yes,                                    !- Apply Friday
  Yes,                                    !- Apply Saturday
  DateRange,                              !- Date Specification Type
  1,                                      !- Start Month
  1,                                      !- Start Day
  12,                                     !- End Month
  31;                                     !- End Day

OS:Schedule:Day,
  {a78e1498-35d1-419f-8c9a-09af3c51dd82}, !- Handle
  cooling setpoint day,                   !- Name
  {2931f158-84ac-46fd-a6f1-1a8c23b350f8}, !- Schedule Type Limits Name
  ,                                       !- Interpolate to Timestep
  24,                                     !- Hour 1
  0,                                      !- Minute 1
  25.5555555555556;                       !- Value Until Time 1

OS:ThermostatSetpoint:DualSetpoint,
  {1f64ba1e-5976-4b2c-9cde-c1cb85f70322}, !- Handle
  conditioned space temperature setpoint, !- Name
  {fd6dcd7d-ded8-445d-b49a-044287fbf243}, !- Heating Setpoint Temperature Schedule Name
  {cf341feb-31fe-4118-98ca-0bdf089385f1}, !- Cooling Setpoint Temperature Schedule Name
  0;                                      !- Temperature Difference Between Cutout And Setpoint {deltaC}

OS:ScheduleTypeLimits,
  {2931f158-84ac-46fd-a6f1-1a8c23b350f8}, !- Handle
  Temperature,                            !- Name
  ,                                       !- Lower Limit Value
  ,                                       !- Upper Limit Value
  Continuous,                             !- Numeric Type
  Temperature;                            !- Unit Type

OS:Surface,
  {e8b8c8bc-a15e-406f-b754-8a89937662f6}, !- Handle
  Roof1,                                  !- Name
  RoofCeiling,                            !- Surface Type
  {c56f9c57-885f-4ebf-b97e-face61d9943c}, !- Construction Name
  {7e87ff21-54e6-4ad8-8c10-b21db3c93af2}, !- Space Name
  Outdoors,                               !- Outside Boundary Condition
  ,                                       !- Outside Boundary Condition Object
  SunExposed,                             !- Sun Exposure
  WindExposed,                            !- Wind Exposure
  ,                                       !- View Factor to Ground
  ,                                       !- Number of Vertices
  1.41860524590607, 10.3253389825797, 2.4384, !- X,Y,Z Vertex 1 {m}
  1.41860524590607, 2.35891414550252, 6.42161241853859, !- X,Y,Z Vertex 2 {m}
  10.3253389825797, 2.35891414550251, 6.42161241853859, !- X,Y,Z Vertex 3 {m}
  10.3253389825797, 10.3253389825797, 2.4384; !- X,Y,Z Vertex 4 {m}

OS:AdditionalProperties,
  {1bd6944d-fd73-4442-95ed-c38b45ba4cd5}, !- Handle
  {e8b8c8bc-a15e-406f-b754-8a89937662f6}, !- Object Name
  Length,                                 !- Feature Name 1
  Double,                                 !- Feature Data Type 1
  29.221567377538118,                     !- Feature Value 1
  Width,                                  !- Feature Name 2
  Double,                                 !- Feature Data Type 2
  29.221567377538118,                     !- Feature Value 2
  Azimuth,                                !- Feature Name 3
  Integer,                                !- Feature Data Type 3
  0,                                      !- Feature Value 3
  Tilt,                                   !- Feature Name 4
  Double,                                 !- Feature Data Type 4
  0.5,                                    !- Feature Value 4
  SurfaceType,                            !- Feature Name 5
  String,                                 !- Feature Data Type 5
  Roof;                                   !- Feature Value 5

OS:ThermalZone,
  {90f32c4f-a3ab-42fc-8a60-6b27620f543a}, !- Handle
  attic - vented,                         !- Name
  1,                                      !- Multiplier
  ,                                       !- Ceiling Height {m}
  126.002877704413,                       !- Volume {m3}
  ,                                       !- Floor Area {m2}
  ,                                       !- Zone Inside Convection Algorithm
  ,                                       !- Zone Outside Convection Algorithm
  ,                                       !- Zone Conditioning Equipment List Name
  {7e70a5aa-5f0e-4448-9e6d-ec43b29f0bad}, !- Zone Air Inlet Port List
  {4fac3d40-2dd0-448e-958b-f830700a9f35}, !- Zone Air Exhaust Port List
  {adb42ffd-f10f-453b-b2a8-6de40e20dcb4}, !- Zone Air Node Name
  {29583921-8a67-44d5-a0d2-1b0a7d95ecbe}, !- Zone Return Air Port List
  ,                                       !- Primary Daylighting Control Name
  ,                                       !- Fraction of Zone Controlled by Primary Daylighting Control
  ,                                       !- Secondary Daylighting Control Name
  ,                                       !- Fraction of Zone Controlled by Secondary Daylighting Control
  ,                                       !- Illuminance Map Name
  ,                                       !- Group Rendering Name
  ,                                       !- Thermostat Name
  No;                                     !- Use Ideal Air Loads

OS:Node,
  {57c7c6bb-fb62-4e3a-9245-17ef7ed7ff77}, !- Handle
  Node 2,                                 !- Name
  {adb42ffd-f10f-453b-b2a8-6de40e20dcb4}, !- Inlet Port
  ;                                       !- Outlet Port

OS:Connection,
  {adb42ffd-f10f-453b-b2a8-6de40e20dcb4}, !- Handle
  {90f32c4f-a3ab-42fc-8a60-6b27620f543a}, !- Source Object
  11,                                     !- Outlet Port
  {57c7c6bb-fb62-4e3a-9245-17ef7ed7ff77}, !- Target Object
  2;                                      !- Inlet Port

OS:PortList,
  {7e70a5aa-5f0e-4448-9e6d-ec43b29f0bad}, !- Handle
  {90f32c4f-a3ab-42fc-8a60-6b27620f543a}; !- HVAC Component

OS:PortList,
  {4fac3d40-2dd0-448e-958b-f830700a9f35}, !- Handle
  {90f32c4f-a3ab-42fc-8a60-6b27620f543a}; !- HVAC Component

OS:PortList,
  {29583921-8a67-44d5-a0d2-1b0a7d95ecbe}, !- Handle
  {90f32c4f-a3ab-42fc-8a60-6b27620f543a}; !- HVAC Component

OS:Sizing:Zone,
  {9675e61f-e3b4-46af-86d7-2bf08422baa8}, !- Handle
  {90f32c4f-a3ab-42fc-8a60-6b27620f543a}, !- Zone or ZoneList Name
  SupplyAirTemperature,                   !- Zone Cooling Design Supply Air Temperature Input Method
  14,                                     !- Zone Cooling Design Supply Air Temperature {C}
  11.11,                                  !- Zone Cooling Design Supply Air Temperature Difference {deltaC}
  SupplyAirTemperature,                   !- Zone Heating Design Supply Air Temperature Input Method
  40,                                     !- Zone Heating Design Supply Air Temperature {C}
  11.11,                                  !- Zone Heating Design Supply Air Temperature Difference {deltaC}
  0.0085,                                 !- Zone Cooling Design Supply Air Humidity Ratio {kg-H2O/kg-air}
  0.008,                                  !- Zone Heating Design Supply Air Humidity Ratio {kg-H2O/kg-air}
  ,                                       !- Zone Heating Sizing Factor
  ,                                       !- Zone Cooling Sizing Factor
  DesignDay,                              !- Cooling Design Air Flow Method
  ,                                       !- Cooling Design Air Flow Rate {m3/s}
  ,                                       !- Cooling Minimum Air Flow per Zone Floor Area {m3/s-m2}
  ,                                       !- Cooling Minimum Air Flow {m3/s}
  ,                                       !- Cooling Minimum Air Flow Fraction
  DesignDay,                              !- Heating Design Air Flow Method
  ,                                       !- Heating Design Air Flow Rate {m3/s}
  ,                                       !- Heating Maximum Air Flow per Zone Floor Area {m3/s-m2}
  ,                                       !- Heating Maximum Air Flow {m3/s}
  ,                                       !- Heating Maximum Air Flow Fraction
  No,                                     !- Account for Dedicated Outdoor Air System
  NeutralSupplyAir,                       !- Dedicated Outdoor Air System Control Strategy
  autosize,                               !- Dedicated Outdoor Air Low Setpoint Temperature for Design {C}
  autosize,                               !- Dedicated Outdoor Air High Setpoint Temperature for Design {C}
  Sensible Load Only No Latent Load,      !- Zone Load Sizing Method
  HumidityRatioDifference,                !- Zone Latent Cooling Design Supply Air Humidity Ratio Input Method
  ,                                       !- Zone Dehumidification Design Supply Air Humidity Ratio {kgWater/kgDryAir}
  0.005,                                  !- Zone Cooling Design Supply Air Humidity Ratio Difference {kgWater/kgDryAir}
  HumidityRatioDifference,                !- Zone Latent Heating Design Supply Air Humidity Ratio Input Method
  ,                                       !- Zone Humidification Design Supply Air Humidity Ratio {kgWater/kgDryAir}
  0.005,                                  !- Zone Humidification Design Supply Air Humidity Ratio Difference {kgWater/kgDryAir}
  ,                                       !- Zone Humidistat Dehumidification Set Point Schedule Name
  ,                                       !- Zone Humidistat Humidification Set Point Schedule Name
  ,                                       !- Design Zone Air Distribution Effectiveness in Cooling Mode
  ,                                       !- Design Zone Air Distribution Effectiveness in Heating Mode
  ,                                       !- Design Zone Secondary Recirculation Fraction {dimensionless}
  ,                                       !- Design Minimum Zone Ventilation Efficiency {dimensionless}
  Coincident;                             !- Sizing Option

OS:ZoneHVAC:EquipmentList,
  {ad5dc446-752e-4798-a9d4-5baf9d304860}, !- Handle
  Zone HVAC Equipment List 2,             !- Name
  {90f32c4f-a3ab-42fc-8a60-6b27620f543a}; !- Thermal Zone

OS:AdditionalProperties,
  {2349dd82-4b3b-4f5d-b4d7-a71b28933925}, !- Handle
  {90f32c4f-a3ab-42fc-8a60-6b27620f543a}, !- Object Name
  ObjectType,                             !- Feature Name 1
  String,                                 !- Feature Data Type 1
  attic - vented;                         !- Feature Value 1

OS:Space,
  {7e87ff21-54e6-4ad8-8c10-b21db3c93af2}, !- Handle
  attic - vented 1,                       !- Name
  ,                                       !- Space Type Name
  ,                                       !- Default Construction Set Name
  ,                                       !- Default Schedule Set Name
  ,                                       !- Direction of Relative North {deg}
  ,                                       !- X Origin {m}
  ,                                       !- Y Origin {m}
  ,                                       !- Z Origin {m}
  ,                                       !- Building Story Name
  {90f32c4f-a3ab-42fc-8a60-6b27620f543a}, !- Thermal Zone Name
  ,                                       !- Part of Total Floor Area
  ,                                       !- Design Specification Outdoor Air Object Name
  ,                                       !- Building Unit Name
  126.002877704413;                       !- Volume {m3}

OS:Material,
  {536b489a-df36-460b-a1e6-458dc247ae3c}, !- Handle
  asphalt or fiberglass shingles,         !- Name
  Rough,                                  !- Roughness
  0.00635,                                !- Thickness {m}
  0.162714,                               !- Conductivity {W/m-K}
  1121.4,                                 !- Density {kg/m3}
  1465.45,                                !- Specific Heat {J/kg-K}
  0.9,                                    !- Thermal Absorptance
  0.85,                                   !- Solar Absorptance