
OS:Version,
  {ec895208-dbc2-4d46-bdb9-52da81105644}, !- Handle
  3.10.0;                                 !- Version Identifier

OS:SimulationControl,
  {7b3c52ef-bd30-47a3-aeda-d9e68a8e1c64}, !- Handle
  ,                                       !- Do Zone Sizing Calculation
  ,                                       !- Do System Sizing Calculation
  ,                                       !- Do Plant Sizing Calculation
  No;                                     !- Run Simulation for Sizing Periods

OS:Timestep,
  {dbe2f491-275b-40d6-8b42-8802602060c8}, !- Handle
  1;                                      !- Number of Timesteps per Hour

OS:ShadowCalculation,
  {416b4247-b154-4d1d-9a5c-27c090871e3d}, !- Handle
  PolygonClipping,                        !- Shading Calculation Method
  ,                                       !- Shading Calculation Update Frequency Method
  20,                                     !- Shading Calculation Update Frequency
  200,                                    !- Maximum Figures in Shadow Overlap Calculations
  ,                                       !- Polygon Clipping Algorithm
  512,                                    !- Pixel Counting Resolution
  ,                                       !- Sky Diffuse Modeling Algorithm
  No,                                     !- Output External Shading Calculation Results
  No,                                     !- Disable Self-Shading Within Shading Zone Groups
  No;                                     !- Disable Self-Shading From Shading Zone Groups to Other Zones

OS:SurfaceConvectionAlgorithm:Outside,
  {73c6ccb0-90be-4e65-bb0e-b84bf2847829}, !- Handle
  DOE-2;                                  !- Algorithm

OS:SurfaceConvectionAlgorithm:Inside,
  {7d02ebaf-4fc4-4fb2-9f94-3dffc8c50b0b}, !- Handle
  TARP;                                   !- Algorithm

OS:ZoneCapacitanceMultiplier:ResearchSpecial,
  {b1370e7e-d8ef-4593-843c-3619387b8f72}, !- Handle
  7,                                      !- Temperature Capacity Multiplier
  15,                                     !- Humidity Capacity Multiplier
  ;                                       !- Carbon Dioxide Capacity Multiplier

OS:ConvergenceLimits,
  {1688da07-93bd-4454-abd3-909528fe0a6c}, !- Handle
  0;                                      !- Minimum System Timestep {minutes}

OS:RunPeriod,
  {09ac2b26-3b26-4241-8586-27b47fcff603}, !- Handle
  Run Period 1,                           !- Name
  1,                                      !- Begin Month
  1,                                      !- Begin Day of Month
  12,                                     !- End Month
  31,                                     !- End Day of Month
  ,                                       !- Use Weather File Holidays and Special Days
  ,                                       !- Use Weather File Daylight Saving Period
  ,                                       !- Apply Weekend Holiday Rule
  ,                                       !- Use Weather File Rain Indicators
  ,                                       !- Use Weather File Snow Indicators
  ;                                       !- Number of Times Runperiod to be Repeated

OS:PerformancePrecisionTradeoffs,
  {dfff8068-bd4e-4c99-a187-37aff71260dd}, !- Handle
  ,                                       !- Use Coil Direct Solutions
  CarrollMRT;                             !- Zone Radiant Exchange Algorithm

OS:WeatherFile,
  {431851cf-bf9f-4752-9d94-988ab26093b0}, !- Handle
  Buffalo Niagara Intl Ap,                !- City
  NY,                                     !- State Province Region
  USA,                                    !- Country
  TMY3,                                   !- Data Source
  725280,                                 !- WMO Number
  42.93,                                  !- Latitude {deg}
  -78.73,                                 !- Longitude {deg}
  -5,                                     !- Time Zone {hr}
  215,                                    !- Elevation {m}
  /Users/nmoore/github/urbanopt-example-geojson-project/example_project/weather/USA_NY_Buffalo-Greater.Buffalo.Intl.AP.725280_TMY3.epw, !- Url
  6B50E0FF,                               !- Checksum
  ,                                       !- Start Date Actual Year
  Sunday;                                 !- Start Day of Week

OS:YearDescription,
  {7ac1061b-1f1a-412d-9336-296fd60804c4}, !- Handle
  2007,                                   !- Calendar Year
  ,                                       !- Day of Week for Start Day
  ;                                       !- Is Leap Year

OS:Site,
  {37396b35-c092-4a7b-9e04-99cfd67f67fd}, !- Handle
  Buffalo Niagara Intl Ap_NY,             !- Name
  42.93,                                  !- Latitude {deg}
  -78.73,                                 !- Longitude {deg}
  -5,                                     !- Time Zone {hr}
  215,                                    !- Elevation {m}
  Suburbs,                                !- Terrain
  Yes;                                    !- Keep Site Location Information

OS:RunPeriodControl:DaylightSavingTime,
  {d8aa95cf-e557-4089-81a5-8af8c87b5ad5}, !- Handle
  Mar 12,                                 !- Start Date
  Nov 5;                                  !- End Date

OS:Site:GroundTemperature:Shallow,
  {5a99920a-c8c9-4185-9541-84a492f15c5b}, !- Handle
  4.30207395723828,                       !- January Surface Ground Temperature {C}
  2.29327249652502,                       !- February Surface Ground Temperature {C}
  2.13240047156047,                       !- March Surface Ground Temperature {C}
  3.08567940719286,                       !- April Surface Ground Temperature {C}
  6.91256312497526,                       !- May Surface Ground Temperature {C}
  10.7216195949507,                       !- June Surface Ground Temperature {C}
  14.0238679822574,                       !- July Surface Ground Temperature {C}
  16.1157611184724,                       !- August Surface Ground Temperature {C}
  16.2934789303462,                       !- September Surface Ground Temperature {C}
  14.5920754632847,                       !- October Surface Ground Temperature {C}
  11.374036348653,                        !- November Surface Ground Temperature {C}
  7.68182621661674;                       !- December Surface Ground Temperature {C}

OS:ThermalZone,
  {c72bef7c-4f1a-471a-9ffb-c2ab85575a75}, !- Handle
  conditioned space,                      !- Name
  1,                                      !- Multiplier
  ,                                       !- Ceiling Height {m}
  346.03186535424,                        !- Volume {m3}
  ,                                       !- Floor Area {m2}
  ,                                       !- Zone Inside Convection Algorithm
  ,                                       !- Zone Outside Convection Algorithm
  ,                                       !- Zone Conditioning Equipment List Name
  {c25c48a3-8628-49cd-8645-4f21ff34cb2b}, !- Zone Air Inlet Port List
  {40fc12b3-54d4-499a-b606-1ddb236dcf33}, !- Zone Air Exhaust Port List
  {d686ac7d-0332-4e6d-9cf6-26aa8beafc25}, !- Zone Air Node Name
  {b819e1e5-b165-46ef-a8e4-8fee5db87d14}, !- Zone Return Air Port List
  ,                                       !- Primary Daylighting Control Name
  ,                                       !- Fraction of Zone Controlled by Primary Daylighting Control
  ,                                       !- Secondary Daylighting Control Name
  ,                                       !- Fraction of Zone Controlled by Secondary Daylighting Control
  ,                                       !- Illuminance Map Name
  ,                                       !- Group Rendering Name
  {6b3272d8-c28e-470c-b080-f9d01be01d34}, !- Thermostat Name
  No;                                     !- Use Ideal Air Loads

OS:Node,
  {61da58cf-f82e-4357-89bb-bf75f88ec424}, !- Handle
  Node 1,                                 !- Name
  {d686ac7d-0332-4e6d-9cf6-26aa8beafc25}, !- Inlet Port
  ;                                       !- Outlet Port

OS:Connection,
  {d686ac7d-0332-4e6d-9cf6-26aa8beafc25}, !- Handle
  {c72bef7c-4f1a-471a-9ffb-c2ab85575a75}, !- Source Object
  11,                                     !- Outlet Port
  {61da58cf-f82e-4357-89bb-bf75f88ec424}, !- Target Object
  2;                                      !- Inlet Port

OS:PortList,
  {c25c48a3-8628-49cd-8645-4f21ff34cb2b}, !- Handle
  {c72bef7c-4f1a-471a-9ffb-c2ab85575a75}, !- HVAC Component
  {c8524e3f-60d3-4106-a796-2ed4f9d3f2b8}; !- Port 1

OS:PortList,
  {40fc12b3-54d4-499a-b606-1ddb236dcf33}, !- Handle
  {c72bef7c-4f1a-471a-9ffb-c2ab85575a75}; !- HVAC Component

OS:PortList,
  {b819e1e5-b165-46ef-a8e4-8fee5db87d14}, !- Handle
  {c72bef7c-4f1a-471a-9ffb-c2ab85575a75}, !- HVAC Component
  {5ae44512-bc06-4c6e-b67b-3bef623142f0}; !- Port 1

OS:Sizing:Zone,
  {1fb1b9b2-c703-49ce-8f5b-a2254eac3663}, !- Handle
  {c72bef7c-4f1a-471a-9ffb-c2ab85575a75}, !- Zone or ZoneList Name
  SupplyAirTemperature,                   !- Zone Cooling Design Supply Air Temperature Input Method
  14,                                     !- Zone Cooling Design Supply Air Temperature {C}
  11.11,                                  !- Zone Cooling Design Supply Air Temperature Difference {deltaC}
  SupplyAirTemperature,                   !- Zone Heating Design Supply Air Temperature Input Method
  40,                                     !- Zone Heating Design Supply Air Temperature {C}
  11.11,                                  !- Zone Heating Design Supply Air Temperature Difference {deltaC}
  0.0085,                                 !- Zone Cooling Design Supply Air Humidity Ratio {kg-H2O/kg-air}
  0.008,                                  !- Zone Heating Design Supply Air Humidity Ratio {kg-H2O/kg-air}
  ,                                       !- Zone Heating Sizing Factor
  ,                                       !- Zone Cooling Sizing Factor
  DesignDay,                              !- Cooling Design Air Flow Method
  ,                                       !- Cooling Design Air Flow Rate {m3/s}
  ,                                       !- Cooling Minimum Air Flow per Zone Floor Area {m3/s-m2}
  ,                                       !- Cooling Minimum Air Flow {m3/s}
  ,                                       !- Cooling Minimum Air Flow Fraction
  DesignDay,                              !- Heating Design Air Flow Method
  ,                                       !- Heating Design Air Flow Rate {m3/s}
  ,                                       !- Heating Maximum Air Flow per Zone Floor Area {m3/s-m2}
  ,                                       !- Heating Maximum Air Flow {m3/s}
  ,                                       !- Heating Maximum Air Flow Fraction
  No,                                     !- Account for Dedicated Outdoor Air System
  NeutralSupplyAir,                       !- Dedicated Outdoor Air System Control Strategy
  autosize,                               !- Dedicated Outdoor Air Low Setpoint Temperature for Design {C}
  autosize,                               !- Dedicated Outdoor Air High Setpoint Temperature for Design {C}
  Sensible Load Only No Latent Load,      !- Zone Load Sizing Method
  HumidityRatioDifference,                !- Zone Latent Cooling Design Supply Air Humidity Ratio Input Method
  ,                                       !- Zone Dehumidification Design Supply Air Humidity Ratio {kgWater/kgDryAir}
  0.005,                                  !- Zone Cooling Design Supply Air Humidity Ratio Difference {kgWater/kgDryAir}
  HumidityRatioDifference,                !- Zone Latent Heating Design Supply Air Humidity Ratio Input Method
  ,                                       !- Zone Humidification Design Supply Air Humidity Ratio {kgWater/kgDryAir}
  0.005,                                  !- Zone Humidification Design Supply Air Humidity Ratio Difference {kgWater/kgDryAir}
  ,                                       !- Zone Humidistat Dehumidification Set Point Schedule Name
  ,                                       !- Zone Humidistat Humidification Set Point Schedule Name
  ,                                       !- Design Zone Air Distribution Effectiveness in Cooling Mode
  ,                                       !- Design Zone Air Distribution Effectiveness in Heating Mode
  ,                                       !- Design Zone Secondary Recirculation Fraction {dimensionless}
  ,                                       !- Design Minimum Zone Ventilation Efficiency {dimensionless}
  Coincident;                             !- Sizing Option

OS:ZoneHVAC:EquipmentList,
  {0dd10fde-df86-4a3c-9577-96584bba73e8}, !- Handle
  Zone HVAC Equipment List 1,             !- Name
  {c72bef7c-4f1a-471a-9ffb-c2ab85575a75}, !- Thermal Zone
  ,                                       !- Load Distribution Scheme
  {4b32b9dd-1172-4649-aa5c-01b23dab8e6b}, !- Zone Equipment 1
  1,                                      !- Zone Equipment Cooling Sequence 1
  1,                                      !- Zone Equipment Heating or No-Load Sequence 1
  {fd6b1046-74fc-41de-a903-9295f7b64b1f}, !- Zone Equipment Sequential Cooling Fraction Schedule Name 1
  {cb0e403a-9f5a-45bf-b892-7e1ae9b0280a}; !- Zone Equipment Sequential Heating Fraction Schedule Name 1

OS:AdditionalProperties,
  {30d7074a-0e64-4336-8b7b-f622d10e4854}, !- Handle
  {c72bef7c-4f1a-471a-9ffb-c2ab85575a75}, !- Object Name
  ObjectType,                             !- Feature Name 1
  String,                                 !- Feature Data Type 1
  conditioned space;                      !- Feature Value 1

OS:Space,
  {b49ee25c-5f6d-4142-881e-51683c5b74d0}, !- Handle
  conditioned space 1,                    !- Name
  ,                                       !- Space Type Name
  ,                                       !- Default Construction Set Name
  ,                                       !- Default Schedule Set Name
  ,                                       !- Direction of Relative North {deg}
  ,                                       !- X Origin {m}
  ,                                       !- Y Origin {m}
  ,                                       !- Z Origin {m}
  ,                                       !- Building Story Name
  {c72bef7c-4f1a-471a-9ffb-c2ab85575a75}, !- Thermal Zone Name
  ,                                       !- Part of Total Floor Area
  ,                                       !- Design Specification Outdoor Air Object Name
  ,                                       !- Building Unit Name
  346.03186535424;                        !- Volume {m3}

OS:Schedule:Ruleset,
  {944085e0-4fcc-4f53-a80c-fe7d93ce39d8}, !- Handle
  heating setpoint,                       !- Name
  {03ad55c9-e15d-420e-b2e4-fcf27911d425}, !- Schedule Type Limits Name
  {329ace62-b315-430c-85b0-c9bc362dd920}; !- Default Day Schedule Name

OS:Schedule:Day,
  {329ace62-b315-430c-85b0-c9bc362dd920}, !- Handle
  heating setpoint default day,           !- Name
  {03ad55c9-e15d-420e-b2e4-fcf27911d425}, !- Schedule Type Limits Name
  ,                                       !- Interpolate to Timestep
  24,                                     !- Hour 1
  0,                                      !- Minute 1
  0;                                      !- Value Until Time 1

OS:Schedule:Rule,
  {be4837b4-1af4-498e-b90c-5e4352f5ffff}, !- Handle
  heating setpoint allday rule,           !- Name
  {944085e0-4fcc-4f53-a80c-fe7d93ce39d8}, !- Schedule Ruleset Name
  0,                                      !- Rule Order
  {3b8b59ed-e1dd-4709-b5d4-dcc3d0ebb8fb}, !- Day Schedule Name
  Yes,                                    !- Apply Sunday
  Yes,                                    !- Apply Monday
  Yes,                                    !- Apply Tuesday
  Yes,                                    !- Apply Wednesday
  Yes,                                    !- Apply Thursday
  Yes,                                    !- Apply Friday
  Yes,                                    !- Apply Saturday
  DateRange,                              !- Date Specification Type
  1,                                      !- Start Month
  1,                                      !- Start Day
  12,                                     !- End Month
  31;                                     !- End Day

OS:Schedule:Day,
  {3b8b59ed-e1dd-4709-b5d4-dcc3d0ebb8fb}, !- Handle
  heating setpoint day,                   !- Name
  {03ad55c9-e15d-420e-b2e4-fcf27911d425}, !- Schedule Type Limits Name
  ,                                       !- Interpolate to Timestep
  24,                                     !- Hour 1
  0,                                      !- Minute 1
  20;                                     !- Value Until Time 1

OS:Schedule:Ruleset,
  {746b10b3-37da-4a3e-93be-b253190a2556}, !- Handle
  cooling setpoint,                       !- Name
  {03ad55c9-e15d-420e-b2e4-fcf27911d425}, !- Schedule Type Limits Name
  {fdb4405e-fc84-4390-8215-db00de8040f3}; !- Default Day Schedule Name

OS:Schedule:Day,
  {fdb4405e-fc84-4390-8215-db00de8040f3}, !- Handle
  cooling setpoint default day,           !- Name
  {03ad55c9-e15d-420e-b2e4-fcf27911d425}, !- Schedule Type Limits Name
  ,                                       !- Interpolate to Timestep
  24,                                     !- Hour 1
  0,                                      !- Minute 1
  0;                                      !- Value Until Time 1

OS:Schedule:Rule,
  {c30a49fe-b87f-49d8-9a74-94bcbe2e9f50}, !- Handle
  cooling setpoint allday rule,           !- Name
  {746b10b3-37da-4a3e-93be-b253190a2556}, !- Schedule Ruleset Name
  0,                                      !- Rule Order
  {cc637519-6ebf-4af1-a293-8f3ad23c68d7}, !- Day Schedule Name
  Yes,                                    !- Apply Sunday
  Yes,                                    !- Apply Monday
  Yes,                                    !- Apply Tuesday
  Yes,                                    !- Apply Wednesday
  Yes,                                    !- Apply Thursday
  Yes,                                    !- Apply Friday
  Yes,                                    !- Apply Saturday
  DateRange,                              !- Date Specification Type
  1,                                      !- Start Month
  1,                                      !- Start Day
  12,                                     !- End Month
  31;                                     !- End Day

OS:Schedule:Day,
  {cc637519-6ebf-4af1-a293-8f3ad23c68d7}, !- Handle
  cooling setpoint day,                   !- Name
  {03ad55c9-e15d-420e-b2e4-fcf27911d425}, !- Schedule Type Limits Name
  ,                                       !- Interpolate to Timestep
  24,                                     !- Hour 1
  0,                                      !- Minute 1
  25.5555555555556;                       !- Value Until Time 1

OS:ThermostatSetpoint:DualSetpoint,
  {6b3272d8-c28e-470c-b080-f9d01be01d34}, !- Handle
  conditioned space temperature setpoint, !- Name
  {944085e0-4fcc-4f53-a80c-fe7d93ce39d8}, !- Heating Setpoint Temperature Schedule Name
  {746b10b3-37da-4a3e-93be-b253190a2556}, !- Cooling Setpoint Temperature Schedule Name
  0;                                      !- Temperature Difference Between Cutout And Setpoint {deltaC}

OS:ScheduleTypeLimits,
  {03ad55c9-e15d-420e-b2e4-fcf27911d425}, !- Handle
  Temperature,                            !- Name
  ,                                       !- Lower Limit Value
  ,                                       !- Upper Limit Value
  Continuous,                             !- Numeric Type
  Temperature;                            !- Unit Type

OS:Surface,
  {312216d5-b960-468c-8106-44839f0f3795}, !- Handle
  Roof1,                                  !- Name
  RoofCeiling,                            !- Surface Type
  {70736064-bd56-4602-bf5d-199ec5b7ae37}, !- Construction Name
  {09b462db-e9fd-44f0-93bf-d1ea5ea8cd5d}, !- Space Name
  Outdoors,                               !- Outside Boundary Condition
  ,                                       !- Outside Boundary Condition Object
  SunExposed,                             !- Sun Exposure
  WindExposed,                            !- Wind Exposure
  ,                                       !- View Factor to Ground
  ,                                       !- Number of Vertices
  1.41860524590607, 10.3253389825797, 2.4384, !- X,Y,Z Vertex 1 {m}
  1.41860524590607, 2.35891414550252, 6.42161241853859, !- X,Y,Z Vertex 2 {m}
  10.3253389825797, 2.35891414550251, 6.42161241853859, !- X,Y,Z Vertex 3 {m}
  10.3253389825797, 10.3253389825797, 2.4384; !- X,Y,Z Vertex 4 {m}

OS:AdditionalProperties,
  {c0998ece-1239-4906-a8ef-b26b3b1d996f}, !- Handle
  {312216d5-b960-468c-8106-44839f0f3795}, !- Object Name
  Length,                                 !- Feature Name 1
  Double,                                 !- Feature Data Type 1
  29.221567377538118,                     !- Feature Value 1
  Width,                                  !- Feature Name 2
  Double,                                 !- Feature Data Type 2
  29.221567377538118,                     !- Feature Value 2
  Azimuth,                                !- Feature Name 3
  Integer,                                !- Feature Data Type 3
  0,                                      !- Feature Value 3
  Tilt,                                   !- Feature Name 4
  Double,                                 !- Feature Data Type 4
  0.5,                                    !- Feature Value 4
  SurfaceType,                            !- Feature Name 5
  String,                                 !- Feature Data Type 5
  Roof;                                   !- Feature Value 5

OS:ThermalZone,
  {e8a9d047-5519-4944-afea-1098d9ac5905}, !- Handle
  attic - vented,                         !- Name
  1,                                      !- Multiplier
  ,                                       !- Ceiling Height {m}
  126.003218814318,                       !- Volume {m3}
  ,                                       !- Floor Area {m2}
  ,                                       !- Zone Inside Convection Algorithm
  ,                                       !- Zone Outside Convection Algorithm
  ,                                       !- Zone Conditioning Equipment List Name
  {0cff2966-e1b3-4d9b-8132-371fd69f0c3a}, !- Zone Air Inlet Port List
  {936ad761-5a6b-4490-916c-50552652d61b}, !- Zone Air Exhaust Port List
  {a512c504-9ce7-490a-83ae-8d0d3b1c37ea}, !- Zone Air Node Name
  {d8e32ec3-da23-4abe-a193-c7717d1473d0}, !- Zone Return Air Port List
  ,                                       !- Primary Daylighting Control Name
  ,                                       !- Fraction of Zone Controlled by Primary Daylighting Control
  ,                                       !- Secondary Daylighting Control Name
  ,                                       !- Fraction of Zone Controlled by Secondary Daylighting Control
  ,                                       !- Illuminance Map Name
  ,                                       !- Group Rendering Name
  ,                                       !- Thermostat Name
  No;                                     !- Use Ideal Air Loads

OS:Node,
  {7738e809-b307-4a69-9ac2-974317643ff7}, !- Handle
  Node 2,                                 !- Name
  {a512c504-9ce7-490a-83ae-8d0d3b1c37ea}, !- Inlet Port
  ;                                       !- Outlet Port

OS:Connection,
  {a512c504-9ce7-490a-83ae-8d0d3b1c37ea}, !- Handle
  {e8a9d047-5519-4944-afea-1098d9ac5905}, !- Source Object
  11,                                     !- Outlet Port
  {7738e809-b307-4a69-9ac2-974317643ff7}, !- Target Object
  2;                                      !- Inlet Port

OS:PortList,
  {0cff2966-e1b3-4d9b-8132-371fd69f0c3a}, !- Handle
  {e8a9d047-5519-4944-afea-1098d9ac5905}; !- HVAC Component

OS:PortList,
  {936ad761-5a6b-4490-916c-50552652d61b}, !- Handle
  {e8a9d047-5519-4944-afea-1098d9ac5905}; !- HVAC Component

OS:PortList,
  {d8e32ec3-da23-4abe-a193-c7717d1473d0}, !- Handle
  {e8a9d047-5519-4944-afea-1098d9ac5905}; !- HVAC Component

OS:Sizing:Zone,
  {63b2f626-8547-4933-abf2-682393672292}, !- Handle
  {e8a9d047-5519-4944-afea-1098d9ac5905}, !- Zone or ZoneList Name
  SupplyAirTemperature,                   !- Zone Cooling Design Supply Air Temperature Input Method
  14,                                     !- Zone Cooling Design Supply Air Temperature {C}
  11.11,                                  !- Zone Cooling Design Supply Air Temperature Difference {deltaC}
  SupplyAirTemperature,                   !- Zone Heating Design Supply Air Temperature Input Method
  40,                                     !- Zone Heating Design Supply Air Temperature {C}
  11.11,                                  !- Zone Heating Design Supply Air Temperature Difference {deltaC}
  0.0085,                                 !- Zone Cooling Design Supply Air Humidity Ratio {kg-H2O/kg-air}
  0.008,                                  !- Zone Heating Design Supply Air Humidity Ratio {kg-H2O/kg-air}
  ,                                       !- Zone Heating Sizing Factor
  ,                                       !- Zone Cooling Sizing Factor
  DesignDay,                              !- Cooling Design Air Flow Method
  ,                                       !- Cooling Design Air Flow Rate {m3/s}
  ,                                       !- Cooling Minimum Air Flow per Zone Floor Area {m3/s-m2}
  ,                                       !- Cooling Minimum Air Flow {m3/s}
  ,                                       !- Cooling Minimum Air Flow Fraction
  DesignDay,                              !- Heating Design Air Flow Method
  ,                                       !- Heating Design Air Flow Rate {m3/s}
  ,                                       !- Heating Maximum Air Flow per Zone Floor Area {m3/s-m2}
  ,                                       !- Heating Maximum Air Flow {m3/s}
  ,                                       !- Heating Maximum Air Flow Fraction
  No,                                     !- Account for Dedicated Outdoor Air System
  NeutralSupplyAir,                       !- Dedicated Outdoor Air System Control Strategy
  autosize,                               !- Dedicated Outdoor Air Low Setpoint Temperature for Design {C}
  autosize,                               !- Dedicated Outdoor Air High Setpoint Temperature for Design {C}
  Sensible Load Only No Latent Load,      !- Zone Load Sizing Method
  HumidityRatioDifference,                !- Zone Latent Cooling Design Supply Air Humidity Ratio Input Method
  ,                                       !- Zone Dehumidification Design Supply Air Humidity Ratio {kgWater/kgDryAir}
  0.005,                                  !- Zone Cooling Design Supply Air Humidity Ratio Difference {kgWater/kgDryAir}
  HumidityRatioDifference,                !- Zone Latent Heating Design Supply Air Humidity Ratio Input Method
  ,                                       !- Zone Humidification Design Supply Air Humidity Ratio {kgWater/kgDryAir}
  0.005,                                  !- Zone Humidification Design Supply Air Humidity Ratio Difference {kgWater/kgDryAir}
  ,                                       !- Zone Humidistat Dehumidification Set Point Schedule Name
  ,                                       !- Zone Humidistat Humidification Set Point Schedule Name
  ,                                       !- Design Zone Air Distribution Effectiveness in Cooling Mode
  ,                                       !- Design Zone Air Distribution Effectiveness in Heating Mode
  ,                                       !- Design Zone Secondary Recirculation Fraction {dimensionless}
  ,                                       !- Design Minimum Zone Ventilation Efficiency {dimensionless}
  Coincident;                             !- Sizing Option

OS:ZoneHVAC:EquipmentList,
  {4d9f5f7f-8db8-46b3-9e00-550c6501d73e}, !- Handle
  Zone HVAC Equipment List 2,             !- Name
  {e8a9d047-5519-4944-afea-1098d9ac5905}; !- Thermal Zone

OS:AdditionalProperties,
  {7aaece5a-de0d-4278-bf9f-811877935e27}, !- Handle
  {e8a9d047-5519-4944-afea-1098d9ac5905}, !- Object Name
  ObjectType,                             !- Feature Name 1
  String,                                 !- Feature Data Type 1
  attic - vented;                         !- Feature Value 1

OS:Space,
  {09b462db-e9fd-44f0-93bf-d1ea5ea8cd5d}, !- Handle
  attic - vented 1,                       !- Name
  ,                                       !- Space Type Name
  ,                                       !- Default Construction Set Name
  ,                                       !- Default Schedule Set Name
  ,                                       !- Direction of Relative North {deg}
  ,                                       !- X Origin {m}
  ,                                       !- Y Origin {m}
  ,                                       !- Z Origin {m}
  ,                                       !- Building Story Name
  {e8a9d047-5519-4944-afea-1098d9ac5905}, !- Thermal Zone Name
  ,                                       !- Part of Total Floor Area
  ,                                       !- Design Specification Outdoor Air Object Name
  ,                                       !- Building Unit Name
  126.003218814318;                       !- Volume {m3}

OS:Material,
  {eb9a90ac-f985-43e4-be7a-5c3cc82295db}, !- Handle
  asphalt or fiberglass shingles,         !- Name
  Rough,                                  !- Roughness
  0.00635,                                !- Thickness {m}
  0.162714,                               !- Conductivity {W/m-K}
  1121.4,                                 !- Density {kg/m3}
  1465.45,                                !- Specific Heat {J/kg-K}
  0.9,                                    !- Thermal Absorptance
  0.85,                                   !- Solar Absorptance