
OS:Version,
  {2b21d98c-c38d-493d-908b-290274d2f94f}, !- Handle
  3.9.0;                                  !- Version Identifier

OS:SimulationControl,
  {0a9f38a0-e929-4085-8971-8014f6f2b099}, !- Handle
  ,                                       !- Do Zone Sizing Calculation
  ,                                       !- Do System Sizing Calculation
  ,                                       !- Do Plant Sizing Calculation
  No;                                     !- Run Simulation for Sizing Periods

OS:Timestep,
  {d80df8e0-bfee-456d-b2f5-baeeaa18a575}, !- Handle
  1;                                      !- Number of Timesteps per Hour

OS:ShadowCalculation,
  {5f3abc48-3f60-4858-b8c0-af2fbd46b957}, !- Handle
  PolygonClipping,                        !- Shading Calculation Method
  ,                                       !- Shading Calculation Update Frequency Method
  20,                                     !- Shading Calculation Update Frequency
  200,                                    !- Maximum Figures in Shadow Overlap Calculations
  ,                                       !- Polygon Clipping Algorithm
  512,                                    !- Pixel Counting Resolution
  ,                                       !- Sky Diffuse Modeling Algorithm
  No,                                     !- Output External Shading Calculation Results
  No,                                     !- Disable Self-Shading Within Shading Zone Groups
  No;                                     !- Disable Self-Shading From Shading Zone Groups to Other Zones

OS:SurfaceConvectionAlgorithm:Outside,
  {f6519590-786f-4132-9d66-21a913bcc338}, !- Handle
  DOE-2;                                  !- Algorithm

OS:SurfaceConvectionAlgorithm:Inside,
  {4a60e0d4-370c-4351-b414-9b6fc4201234}, !- Handle
  TARP;                                   !- Algorithm

OS:ZoneCapacitanceMultiplier:ResearchSpecial,
  {dd25328a-5e78-415f-99ad-31654fb2403f}, !- Handle
  7,                                      !- Temperature Capacity Multiplier
  15,                                     !- Humidity Capacity Multiplier
  ;                                       !- Carbon Dioxide Capacity Multiplier

OS:ConvergenceLimits,
  {23a8dcaf-9758-4669-b0ab-b384d7855b4e}, !- Handle
  0;                                      !- Minimum System Timestep {minutes}

OS:RunPeriod,
  {b718109f-5f46-4aa0-9c96-b7b37db11ad5}, !- Handle
  Run Period 1,                           !- Name
  1,                                      !- Begin Month
  1,                                      !- Begin Day of Month
  12,                                     !- End Month
  31,                                     !- End Day of Month
  ,                                       !- Use Weather File Holidays and Special Days
  ,                                       !- Use Weather File Daylight Saving Period
  ,                                       !- Apply Weekend Holiday Rule
  ,                                       !- Use Weather File Rain Indicators
  ,                                       !- Use Weather File Snow Indicators
  ;                                       !- Number of Times Runperiod to be Repeated

OS:PerformancePrecisionTradeoffs,
  {cea6397b-9c2b-44da-b973-559c95f50f50}, !- Handle
  ,                                       !- Use Coil Direct Solutions
  CarrollMRT;                             !- Zone Radiant Exchange Algorithm

OS:WeatherFile,
  {c9905fcc-4394-4183-93d4-ab796bf9edaf}, !- Handle
  Buffalo Niagara Intl Ap,                !- City
  NY,                                     !- State Province Region
  USA,                                    !- Country
  TMY3,                                   !- Data Source
  725280,                                 !- WMO Number
  42.93,                                  !- Latitude {deg}
  -78.73,                                 !- Longitude {deg}
  -5,                                     !- Time Zone {hr}
  215,                                    !- Elevation {m}
  /Users/nmoore/github/urbanopt-example-geojson-project/example_project/weather/USA_NY_Buffalo-Greater.Buffalo.Intl.AP.725280_TMY3.epw, !- Url
  6B50E0FF,                               !- Checksum
  ,                                       !- Start Date Actual Year
  Sunday;                                 !- Start Day of Week

OS:YearDescription,
  {59d52ad3-0546-43a1-8f35-88b0dc88c0e8}, !- Handle
  2007,                                   !- Calendar Year
  ,                                       !- Day of Week for Start Day
  ;                                       !- Is Leap Year

OS:Site,
  {08aa6ab7-be97-45d6-839e-cac5eb7f1d4e}, !- Handle
  Buffalo Niagara Intl Ap_NY,             !- Name
  42.93,                                  !- Latitude {deg}
  -78.73,                                 !- Longitude {deg}
  -5,                                     !- Time Zone {hr}
  215,                                    !- Elevation {m}
  Suburbs,                                !- Terrain
  Yes;                                    !- Keep Site Location Information

OS:RunPeriodControl:DaylightSavingTime,
  {15d78c8c-4c78-422e-8f26-38aa25b96f48}, !- Handle
  Mar 12,                                 !- Start Date
  Nov 5;                                  !- End Date

OS:Site:GroundTemperature:Shallow,
  {01d58022-1563-4f73-901b-c828f692ae0e}, !- Handle
  4.30207395723828,                       !- January Surface Ground Temperature {C}
  2.29327249652502,                       !- February Surface Ground Temperature {C}
  2.13240047156047,                       !- March Surface Ground Temperature {C}
  3.08567940719286,                       !- April Surface Ground Temperature {C}
  6.91256312497526,                       !- May Surface Ground Temperature {C}
  10.7216195949507,                       !- June Surface Ground Temperature {C}
  14.0238679822574,                       !- July Surface Ground Temperature {C}
  16.1157611184724,                       !- August Surface Ground Temperature {C}
  16.2934789303462,                       !- September Surface Ground Temperature {C}
  14.5920754632847,                       !- October Surface Ground Temperature {C}
  11.374036348653,                        !- November Surface Ground Temperature {C}
  7.68182621661674;                       !- December Surface Ground Temperature {C}

OS:ThermalZone,
  {ce72771c-4b22-41ac-940e-d3d46d2ad4b1}, !- Handle
  conditioned space,                      !- Name
  1,                                      !- Multiplier
  ,                                       !- Ceiling Height {m}
  692.06373070848,                        !- Volume {m3}
  ,                                       !- Floor Area {m2}
  ,                                       !- Zone Inside Convection Algorithm
  ,                                       !- Zone Outside Convection Algorithm
  ,                                       !- Zone Conditioning Equipment List Name
  {6f2ece35-9305-4061-9e82-097a932bd434}, !- Zone Air Inlet Port List
  {2a72b7d6-3d02-43da-8e8d-c7bc77a4f8d6}, !- Zone Air Exhaust Port List
  {488005b6-71af-4608-8514-72dc0952a41f}, !- Zone Air Node Name
  {8b6bf9c4-bf2e-4309-8a81-c9c9f45714f3}, !- Zone Return Air Port List
  ,                                       !- Primary Daylighting Control Name
  ,                                       !- Fraction of Zone Controlled by Primary Daylighting Control
  ,                                       !- Secondary Daylighting Control Name
  ,                                       !- Fraction of Zone Controlled by Secondary Daylighting Control
  ,                                       !- Illuminance Map Name
  ,                                       !- Group Rendering Name
  {c4c267ec-a9a4-47e4-bc9e-bba32292c3bf}, !- Thermostat Name
  No;                                     !- Use Ideal Air Loads

OS:Node,
  {2cda38b3-0094-474e-b0eb-da48e0d57e5d}, !- Handle
  Node 1,                                 !- Name
  {488005b6-71af-4608-8514-72dc0952a41f}, !- Inlet Port
  ;                                       !- Outlet Port

OS:Connection,
  {488005b6-71af-4608-8514-72dc0952a41f}, !- Handle
  {ce72771c-4b22-41ac-940e-d3d46d2ad4b1}, !- Source Object
  11,                                     !- Outlet Port
  {2cda38b3-0094-474e-b0eb-da48e0d57e5d}, !- Target Object
  2;                                      !- Inlet Port

OS:PortList,
  {6f2ece35-9305-4061-9e82-097a932bd434}, !- Handle
  {ce72771c-4b22-41ac-940e-d3d46d2ad4b1}, !- HVAC Component
  {a6b9e30d-2af6-45b0-ade8-199e7fd67d20}; !- Port 1

OS:PortList,
  {2a72b7d6-3d02-43da-8e8d-c7bc77a4f8d6}, !- Handle
  {ce72771c-4b22-41ac-940e-d3d46d2ad4b1}; !- HVAC Component

OS:PortList,
  {8b6bf9c4-bf2e-4309-8a81-c9c9f45714f3}, !- Handle
  {ce72771c-4b22-41ac-940e-d3d46d2ad4b1}, !- HVAC Component
  {73c2ab05-f151-4609-a415-c3afe02416cd}; !- Port 1

OS:Sizing:Zone,
  {471064dd-a121-4690-bd04-a28487a5afc6}, !- Handle
  {ce72771c-4b22-41ac-940e-d3d46d2ad4b1}, !- Zone or ZoneList Name
  SupplyAirTemperature,                   !- Zone Cooling Design Supply Air Temperature Input Method
  14,                                     !- Zone Cooling Design Supply Air Temperature {C}
  11.11,                                  !- Zone Cooling Design Supply Air Temperature Difference {deltaC}
  SupplyAirTemperature,                   !- Zone Heating Design Supply Air Temperature Input Method
  40,                                     !- Zone Heating Design Supply Air Temperature {C}
  11.11,                                  !- Zone Heating Design Supply Air Temperature Difference {deltaC}
  0.0085,                                 !- Zone Cooling Design Supply Air Humidity Ratio {kg-H2O/kg-air}
  0.008,                                  !- Zone Heating Design Supply Air Humidity Ratio {kg-H2O/kg-air}
  ,                                       !- Zone Heating Sizing Factor
  ,                                       !- Zone Cooling Sizing Factor
  DesignDay,                              !- Cooling Design Air Flow Method
  ,                                       !- Cooling Design Air Flow Rate {m3/s}
  ,                                       !- Cooling Minimum Air Flow per Zone Floor Area {m3/s-m2}
  ,                                       !- Cooling Minimum Air Flow {m3/s}
  ,                                       !- Cooling Minimum Air Flow Fraction
  DesignDay,                              !- Heating Design Air Flow Method
  ,                                       !- Heating Design Air Flow Rate {m3/s}
  ,                                       !- Heating Maximum Air Flow per Zone Floor Area {m3/s-m2}
  ,                                       !- Heating Maximum Air Flow {m3/s}
  ,                                       !- Heating Maximum Air Flow Fraction
  No,                                     !- Account for Dedicated Outdoor Air System
  NeutralSupplyAir,                       !- Dedicated Outdoor Air System Control Strategy
  autosize,                               !- Dedicated Outdoor Air Low Setpoint Temperature for Design {C}
  autosize,                               !- Dedicated Outdoor Air High Setpoint Temperature for Design {C}
  Sensible Load Only No Latent Load,      !- Zone Load Sizing Method
  HumidityRatioDifference,                !- Zone Latent Cooling Design Supply Air Humidity Ratio Input Method
  ,                                       !- Zone Dehumidification Design Supply Air Humidity Ratio {kgWater/kgDryAir}
  0.005,                                  !- Zone Cooling Design Supply Air Humidity Ratio Difference {kgWater/kgDryAir}
  HumidityRatioDifference,                !- Zone Latent Heating Design Supply Air Humidity Ratio Input Method
  ,                                       !- Zone Humidification Design Supply Air Humidity Ratio {kgWater/kgDryAir}
  0.005,                                  !- Zone Humidification Design Supply Air Humidity Ratio Difference {kgWater/kgDryAir}
  ,                                       !- Zone Humidistat Dehumidification Set Point Schedule Name
  ,                                       !- Zone Humidistat Humidification Set Point Schedule Name
  ,                                       !- Design Zone Air Distribution Effectiveness in Cooling Mode
  ,                                       !- Design Zone Air Distribution Effectiveness in Heating Mode
  ,                                       !- Design Zone Secondary Recirculation Fraction {dimensionless}
  ,                                       !- Design Minimum Zone Ventilation Efficiency {dimensionless}
  Coincident;                             !- Sizing Option

OS:ZoneHVAC:EquipmentList,
  {cd07a2e4-a0ee-4f30-a256-152c292ac955}, !- Handle
  Zone HVAC Equipment List 1,             !- Name
  {ce72771c-4b22-41ac-940e-d3d46d2ad4b1}, !- Thermal Zone
  ,                                       !- Load Distribution Scheme
  {a024e539-8f41-4af0-8256-27ed41894c21}, !- Zone Equipment 1
  1,                                      !- Zone Equipment Cooling Sequence 1
  1,                                      !- Zone Equipment Heating or No-Load Sequence 1
  {ac516e22-a1fa-4307-aa6d-f71bc66469fe}, !- Zone Equipment Sequential Cooling Fraction Schedule Name 1
  {a3d106a6-142c-4a6b-ac8b-b10241445f69}; !- Zone Equipment Sequential Heating Fraction Schedule Name 1

OS:AdditionalProperties,
  {01acd6f3-7ef0-46dd-9dd3-4d466867f33c}, !- Handle
  {ce72771c-4b22-41ac-940e-d3d46d2ad4b1}, !- Object Name
  ObjectType,                             !- Feature Name 1
  String,                                 !- Feature Data Type 1
  conditioned space;                      !- Feature Value 1

OS:Space,
  {4b992d27-2f54-4f2b-9275-14f829f57f6b}, !- Handle
  conditioned space 1,                    !- Name
  ,                                       !- Space Type Name
  ,                                       !- Default Construction Set Name
  ,                                       !- Default Schedule Set Name
  ,                                       !- Direction of Relative North {deg}
  ,                                       !- X Origin {m}
  ,                                       !- Y Origin {m}
  ,                                       !- Z Origin {m}
  ,                                       !- Building Story Name
  {ce72771c-4b22-41ac-940e-d3d46d2ad4b1}, !- Thermal Zone Name
  ,                                       !- Part of Total Floor Area
  ,                                       !- Design Specification Outdoor Air Object Name
  ,                                       !- Building Unit Name
  692.06373070848;                        !- Volume {m3}

OS:Schedule:Ruleset,
  {06853e26-74b7-4da8-9f16-ff6ffc17100a}, !- Handle
  heating setpoint,                       !- Name
  {af7c3dc1-9a87-482a-9761-c5757d2d5eef}, !- Schedule Type Limits Name
  {0a8acaa1-fc70-45f6-86ba-e50b1bf462e2}; !- Default Day Schedule Name

OS:Schedule:Day,
  {0a8acaa1-fc70-45f6-86ba-e50b1bf462e2}, !- Handle
  heating setpoint default day,           !- Name
  {af7c3dc1-9a87-482a-9761-c5757d2d5eef}, !- Schedule Type Limits Name
  ,                                       !- Interpolate to Timestep
  24,                                     !- Hour 1
  0,                                      !- Minute 1
  0;                                      !- Value Until Time 1

OS:Schedule:Rule,
  {4b1b87f5-e978-4d82-bac0-3f778da8a8be}, !- Handle
  heating setpoint allday rule,           !- Name
  {06853e26-74b7-4da8-9f16-ff6ffc17100a}, !- Schedule Ruleset Name
  0,                                      !- Rule Order
  {57c96176-4f3b-4cfd-aba0-c0e16b1582be}, !- Day Schedule Name
  Yes,                                    !- Apply Sunday
  Yes,                                    !- Apply Monday
  Yes,                                    !- Apply Tuesday
  Yes,                                    !- Apply Wednesday
  Yes,                                    !- Apply Thursday
  Yes,                                    !- Apply Friday
  Yes,                                    !- Apply Saturday
  DateRange,                              !- Date Specification Type
  1,                                      !- Start Month
  1,                                      !- Start Day
  12,                                     !- End Month
  31;                                     !- End Day

OS:Schedule:Day,
  {57c96176-4f3b-4cfd-aba0-c0e16b1582be}, !- Handle
  heating setpoint day,                   !- Name
  {af7c3dc1-9a87-482a-9761-c5757d2d5eef}, !- Schedule Type Limits Name
  ,                                       !- Interpolate to Timestep
  24,                                     !- Hour 1
  0,                                      !- Minute 1
  20;                                     !- Value Until Time 1

OS:Schedule:Ruleset,
  {83aba2cd-ba7c-467a-a465-a368e61dc6df}, !- Handle
  cooling setpoint,                       !- Name
  {af7c3dc1-9a87-482a-9761-c5757d2d5eef}, !- Schedule Type Limits Name
  {e6cfe04f-d364-43b9-a896-db01e1a1f117}; !- Default Day Schedule Name

OS:Schedule:Day,
  {e6cfe04f-d364-43b9-a896-db01e1a1f117}, !- Handle
  cooling setpoint default day,           !- Name
  {af7c3dc1-9a87-482a-9761-c5757d2d5eef}, !- Schedule Type Limits Name
  ,                                       !- Interpolate to Timestep
  24,                                     !- Hour 1
  0,                                      !- Minute 1
  0;                                      !- Value Until Time 1

OS:Schedule:Rule,
  {d2c926b6-730f-4403-8624-7212bf31e685}, !- Handle
  cooling setpoint allday rule,           !- Name
  {83aba2cd-ba7c-467a-a465-a368e61dc6df}, !- Schedule Ruleset Name
  0,                                      !- Rule Order
  {368ffa3d-dc49-4619-83fa-554c61b7ff14}, !- Day Schedule Name
  Yes,                                    !- Apply Sunday
  Yes,                                    !- Apply Monday
  Yes,                                    !- Apply Tuesday
  Yes,                                    !- Apply Wednesday
  Yes,                                    !- Apply Thursday
  Yes,                                    !- Apply Friday
  Yes,                                    !- Apply Saturday
  DateRange,                              !- Date Specification Type
  1,                                      !- Start Month
  1,                                      !- Start Day
  12,                                     !- End Month
  31;                                     !- End Day

OS:Schedule:Day,
  {368ffa3d-dc49-4619-83fa-554c61b7ff14}, !- Handle
  cooling setpoint day,                   !- Name
  {af7c3dc1-9a87-482a-9761-c5757d2d5eef}, !- Schedule Type Limits Name
  ,                                       !- Interpolate to Timestep
  24,                                     !- Hour 1
  0,                                      !- Minute 1
  25.5555555555556;                       !- Value Until Time 1

OS:ThermostatSetpoint:DualSetpoint,
  {c4c267ec-a9a4-47e4-bc9e-bba32292c3bf}, !- Handle
  conditioned space temperature setpoint, !- Name
  {06853e26-74b7-4da8-9f16-ff6ffc17100a}, !- Heating Setpoint Temperature Schedule Name
  {83aba2cd-ba7c-467a-a465-a368e61dc6df}, !- Cooling Setpoint Temperature Schedule Name
  0;                                      !- Temperature Difference Between Cutout And Setpoint {deltaC}

OS:ScheduleTypeLimits,
  {af7c3dc1-9a87-482a-9761-c5757d2d5eef}, !- Handle
  Temperature,                            !- Name
  ,                                       !- Lower Limit Value
  ,                                       !- Upper Limit Value
  Continuous,                             !- Numeric Type
  Temperature;                            !- Unit Type

OS:Surface,
  {75f87903-a44e-4231-9bae-b0a7b3415e0e}, !- Handle
  Roof1,                                  !- Name
  RoofCeiling,                            !- Surface Type
  {2eab6106-7b76-4a89-afc9-d637eb42e294}, !- Construction Name
  {750e9049-7de8-43d9-a1fc-d29e45f223a3}, !- Space Name
  Outdoors,                               !- Outside Boundary Condition
  ,                                       !- Outside Boundary Condition Object
  SunExposed,                             !- Sun Exposure
  WindExposed,                            !- Wind Exposure
  ,                                       !- View Factor to Ground
  ,                                       !- Number of Vertices
  -26.9347048849634, 58.0557891618865, 2.4384, !- X,Y,Z Vertex 1 {m}
  -26.9347048849634, 46.7895631136661, 8.0715130241102, !- X,Y,Z Vertex 2 {m}
  -14.3386812381136, 46.7895631136661, 8.0715130241102, !- X,Y,Z Vertex 3 {m}
  -14.3386812381136, 58.0557891618865, 2.4384; !- X,Y,Z Vertex 4 {m}

OS:AdditionalProperties,
  {ce6cf04e-d579-4791-bc0d-e582e83faaf9}, !- Handle
  {75f87903-a44e-4231-9bae-b0a7b3415e0e}, !- Object Name
  Length,                                 !- Feature Name 1
  Double,                                 !- Feature Data Type 1
  41.325536899113608,                     !- Feature Value 1
  Width,                                  !- Feature Name 2
  Double,                                 !- Feature Data Type 2
  41.325536899113601,                     !- Feature Value 2
  Azimuth,                                !- Feature Name 3
  Integer,                                !- Feature Data Type 3
  0,                                      !- Feature Value 3
  Tilt,                                   !- Feature Name 4
  Double,                                 !- Feature Data Type 4
  0.5,                                    !- Feature Value 4
  SurfaceType,                            !- Feature Name 5
  String,                                 !- Feature Data Type 5
  Roof;                                   !- Feature Value 5

OS:ThermalZone,
  {c92d0403-d929-4fdb-9846-c85c6f5ad35c}, !- Handle
  attic - vented,                         !- Name
  1,                                      !- Multiplier
  ,                                       !- Ceiling Height {m}
  356.389957095237,                       !- Volume {m3}
  ,                                       !- Floor Area {m2}
  ,                                       !- Zone Inside Convection Algorithm
  ,                                       !- Zone Outside Convection Algorithm
  ,                                       !- Zone Conditioning Equipment List Name
  {fef330a0-06b4-4edc-abdd-50c702be72db}, !- Zone Air Inlet Port List
  {a4b45717-851d-466e-8de0-5affc0fef1ab}, !- Zone Air Exhaust Port List
  {17514a8f-9ec4-4e86-98ee-e44eecc932e1}, !- Zone Air Node Name
  {88ce488a-4cd8-4a88-874b-de0f3626e468}, !- Zone Return Air Port List
  ,                                       !- Primary Daylighting Control Name
  ,                                       !- Fraction of Zone Controlled by Primary Daylighting Control
  ,                                       !- Secondary Daylighting Control Name
  ,                                       !- Fraction of Zone Controlled by Secondary Daylighting Control
  ,                                       !- Illuminance Map Name
  ,                                       !- Group Rendering Name
  ,                                       !- Thermostat Name
  No;                                     !- Use Ideal Air Loads

OS:Node,
  {5d843754-79fb-4bb4-a938-061019f04844}, !- Handle
  Node 2,                                 !- Name
  {17514a8f-9ec4-4e86-98ee-e44eecc932e1}, !- Inlet Port
  ;                                       !- Outlet Port

OS:Connection,
  {17514a8f-9ec4-4e86-98ee-e44eecc932e1}, !- Handle
  {c92d0403-d929-4fdb-9846-c85c6f5ad35c}, !- Source Object
  11,                                     !- Outlet Port
  {5d843754-79fb-4bb4-a938-061019f04844}, !- Target Object
  2;                                      !- Inlet Port

OS:PortList,
  {fef330a0-06b4-4edc-abdd-50c702be72db}, !- Handle
  {c92d0403-d929-4fdb-9846-c85c6f5ad35c}; !- HVAC Component

OS:PortList,
  {a4b45717-851d-466e-8de0-5affc0fef1ab}, !- Handle
  {c92d0403-d929-4fdb-9846-c85c6f5ad35c}; !- HVAC Component

OS:PortList,
  {88ce488a-4cd8-4a88-874b-de0f3626e468}, !- Handle
  {c92d0403-d929-4fdb-9846-c85c6f5ad35c}; !- HVAC Component

OS:Sizing:Zone,
  {81c086e7-587c-470f-9eb5-62581e4c3762}, !- Handle
  {c92d0403-d929-4fdb-9846-c85c6f5ad35c}, !- Zone or ZoneList Name
  SupplyAirTemperature,                   !- Zone Cooling Design Supply Air Temperature Input Method
  14,                                     !- Zone Cooling Design Supply Air Temperature {C}
  11.11,                                  !- Zone Cooling Design Supply Air Temperature Difference {deltaC}
  SupplyAirTemperature,                   !- Zone Heating Design Supply Air Temperature Input Method
  40,                                     !- Zone Heating Design Supply Air Temperature {C}
  11.11,                                  !- Zone Heating Design Supply Air Temperature Difference {deltaC}
  0.0085,                                 !- Zone Cooling Design Supply Air Humidity Ratio {kg-H2O/kg-air}
  0.008,                                  !- Zone Heating Design Supply Air Humidity Ratio {kg-H2O/kg-air}
  ,                                       !- Zone Heating Sizing Factor
  ,                                       !- Zone Cooling Sizing Factor
  DesignDay,                              !- Cooling Design Air Flow Method
  ,                                       !- Cooling Design Air Flow Rate {m3/s}
  ,                                       !- Cooling Minimum Air Flow per Zone Floor Area {m3/s-m2}
  ,                                       !- Cooling Minimum Air Flow {m3/s}
  ,                                       !- Cooling Minimum Air Flow Fraction
  DesignDay,                              !- Heating Design Air Flow Method
  ,                                       !- Heating Design Air Flow Rate {m3/s}
  ,                                       !- Heating Maximum Air Flow per Zone Floor Area {m3/s-m2}
  ,                                       !- Heating Maximum Air Flow {m3/s}
  ,                                       !- Heating Maximum Air Flow Fraction
  No,                                     !- Account for Dedicated Outdoor Air System
  NeutralSupplyAir,                       !- Dedicated Outdoor Air System Control Strategy
  autosize,                               !- Dedicated Outdoor Air Low Setpoint Temperature for Design {C}
  autosize,                               !- Dedicated Outdoor Air High Setpoint Temperature for Design {C}
  Sensible Load Only No Latent Load,      !- Zone Load Sizing Method
  HumidityRatioDifference,                !- Zone Latent Cooling Design Supply Air Humidity Ratio Input Method
  ,                                       !- Zone Dehumidification Design Supply Air Humidity Ratio {kgWater/kgDryAir}
  0.005,                                  !- Zone Cooling Design Supply Air Humidity Ratio Difference {kgWater/kgDryAir}
  HumidityRatioDifference,                !- Zone Latent Heating Design Supply Air Humidity Ratio Input Method
  ,                                       !- Zone Humidification Design Supply Air Humidity Ratio {kgWater/kgDryAir}
  0.005,                                  !- Zone Humidification Design Supply Air Humidity Ratio Difference {kgWater/kgDryAir}
  ,                                       !- Zone Humidistat Dehumidification Set Point Schedule Name
  ,                                       !- Zone Humidistat Humidification Set Point Schedule Name
  ,                                       !- Design Zone Air Distribution Effectiveness in Cooling Mode
  ,                                       !- Design Zone Air Distribution Effectiveness in Heating Mode
  ,                                       !- Design Zone Secondary Recirculation Fraction {dimensionless}
  ,                                       !- Design Minimum Zone Ventilation Efficiency {dimensionless}
  Coincident;                             !- Sizing Option

OS:ZoneHVAC:EquipmentList,
  {0c95fcdc-ad11-4070-8e97-bf5b60808871}, !- Handle
  Zone HVAC Equipment List 2,             !- Name
  {c92d0403-d929-4fdb-9846-c85c6f5ad35c}; !- Thermal Zone

OS:AdditionalProperties,
  {523919a7-5c13-4d88-840b-eafa7729154d}, !- Handle
  {c92d0403-d929-4fdb-9846-c85c6f5ad35c}, !- Object Name
  ObjectType,                             !- Feature Name 1
  String,                                 !- Feature Data Type 1
  attic - vented;                         !- Feature Value 1

OS:Space,
  {750e9049-7de8-43d9-a1fc-d29e45f223a3}, !- Handle
  attic - vented 1,                       !- Name
  ,                                       !- Space Type Name
  ,                                       !- Default Construction Set Name
  ,                                       !- Default Schedule Set Name
  ,                                       !- Direction of Relative North {deg}
  ,                                       !- X Origin {m}
  ,                                       !- Y Origin {m}
  ,                                       !- Z Origin {m}
  ,                                       !- Building Story Name
  {c92d0403-d929-4fdb-9846-c85c6f5ad35c}, !- Thermal Zone Name
  ,                                       !- Part of Total Floor Area
  ,                                       !- Design Specification Outdoor Air Object Name
  ,                                       !- Building Unit Name
  356.389957095237;                       !- Volume {m3}

OS:Material,
  {7b926b8a-d3c6-47cb-af19-00a21cab6860}, !- Handle
  asphalt or fiberglass shingles,         !- Name
  Rough,                                  !- Roughness
  0.00635,                                !- Thickness {m}
  0.162714,                               !- Conductivity {W/m-K}
  1121.4,                                 !- Density {kg/m3}
  1465.45,                                !- Specific Heat {J/kg-K}
  0.9,                                    !- Thermal Absorptance
  0.85,                                   !- Solar Absorptance