
OS:Version,
  {226322d5-9bc9-4ee0-b407-a9739e109fb5}, !- Handle
  3.10.0;                                 !- Version Identifier

OS:SimulationControl,
  {26afa815-2cad-4e02-9911-32365056245a}, !- Handle
  ,                                       !- Do Zone Sizing Calculation
  ,                                       !- Do System Sizing Calculation
  ,                                       !- Do Plant Sizing Calculation
  No;                                     !- Run Simulation for Sizing Periods

OS:Timestep,
  {23ec0f59-15b4-481c-9544-8daa482653d1}, !- Handle
  1;                                      !- Number of Timesteps per Hour

OS:ShadowCalculation,
  {11e8c871-e6fc-4f11-a192-eada8c88b669}, !- Handle
  PolygonClipping,                        !- Shading Calculation Method
  ,                                       !- Shading Calculation Update Frequency Method
  20,                                     !- Shading Calculation Update Frequency
  200,                                    !- Maximum Figures in Shadow Overlap Calculations
  ,                                       !- Polygon Clipping Algorithm
  512,                                    !- Pixel Counting Resolution
  ,                                       !- Sky Diffuse Modeling Algorithm
  No,                                     !- Output External Shading Calculation Results
  No,                                     !- Disable Self-Shading Within Shading Zone Groups
  No;                                     !- Disable Self-Shading From Shading Zone Groups to Other Zones

OS:SurfaceConvectionAlgorithm:Outside,
  {9fb6ce43-a62e-4467-810a-ff89578b6e5f}, !- Handle
  DOE-2;                                  !- Algorithm

OS:SurfaceConvectionAlgorithm:Inside,
  {643fc75c-fe7b-462e-95d2-590a115db485}, !- Handle
  TARP;                                   !- Algorithm

OS:ZoneCapacitanceMultiplier:ResearchSpecial,
  {81024525-1c68-4493-a00a-2fd8730abd51}, !- Handle
  7,                                      !- Temperature Capacity Multiplier
  15,                                     !- Humidity Capacity Multiplier
  ;                                       !- Carbon Dioxide Capacity Multiplier

OS:ConvergenceLimits,
  {4603810e-d110-4679-bd13-b4d57e4a137d}, !- Handle
  0;                                      !- Minimum System Timestep {minutes}

OS:RunPeriod,
  {f9ecd8be-e636-400a-8914-f8893887ae54}, !- Handle
  Run Period 1,                           !- Name
  1,                                      !- Begin Month
  1,                                      !- Begin Day of Month
  12,                                     !- End Month
  31,                                     !- End Day of Month
  ,                                       !- Use Weather File Holidays and Special Days
  ,                                       !- Use Weather File Daylight Saving Period
  ,                                       !- Apply Weekend Holiday Rule
  ,                                       !- Use Weather File Rain Indicators
  ,                                       !- Use Weather File Snow Indicators
  ;                                       !- Number of Times Runperiod to be Repeated

OS:PerformancePrecisionTradeoffs,
  {432a136f-bca6-4703-9492-425a3f963cd3}, !- Handle
  ,                                       !- Use Coil Direct Solutions
  CarrollMRT;                             !- Zone Radiant Exchange Algorithm

OS:WeatherFile,
  {03830f12-4f7f-493b-b353-07843c0015c0}, !- Handle
  Buffalo Niagara Intl Ap,                !- City
  NY,                                     !- State Province Region
  USA,                                    !- Country
  TMY3,                                   !- Data Source
  725280,                                 !- WMO Number
  42.93,                                  !- Latitude {deg}
  -78.73,                                 !- Longitude {deg}
  -5,                                     !- Time Zone {hr}
  215,                                    !- Elevation {m}
  /Users/nmoore/github/urbanopt-example-geojson-project/example_project/weather/USA_NY_Buffalo-Greater.Buffalo.Intl.AP.725280_TMY3.epw, !- Url
  6B50E0FF,                               !- Checksum
  ,                                       !- Start Date Actual Year
  Sunday;                                 !- Start Day of Week

OS:YearDescription,
  {63f0b0e4-6c73-468d-aa95-78e9f88b051a}, !- Handle
  2007,                                   !- Calendar Year
  ,                                       !- Day of Week for Start Day
  ;                                       !- Is Leap Year

OS:Site,
  {ded6ad14-b163-46d5-8f80-10975021776a}, !- Handle
  Buffalo Niagara Intl Ap_NY,             !- Name
  42.93,                                  !- Latitude {deg}
  -78.73,                                 !- Longitude {deg}
  -5,                                     !- Time Zone {hr}
  215,                                    !- Elevation {m}
  Suburbs,                                !- Terrain
  Yes;                                    !- Keep Site Location Information

OS:RunPeriodControl:DaylightSavingTime,
  {5199c25f-1bc5-4e83-b46d-82c5b0332ff1}, !- Handle
  Mar 12,                                 !- Start Date
  Nov 5;                                  !- End Date

OS:Site:GroundTemperature:Shallow,
  {68134fcd-c34b-4cbd-9d7d-ed2a3f4f687c}, !- Handle
  4.30207395723828,                       !- January Surface Ground Temperature {C}
  2.29327249652502,                       !- February Surface Ground Temperature {C}
  2.13240047156047,                       !- March Surface Ground Temperature {C}
  3.08567940719286,                       !- April Surface Ground Temperature {C}
  6.91256312497526,                       !- May Surface Ground Temperature {C}
  10.7216195949507,                       !- June Surface Ground Temperature {C}
  14.0238679822574,                       !- July Surface Ground Temperature {C}
  16.1157611184724,                       !- August Surface Ground Temperature {C}
  16.2934789303462,                       !- September Surface Ground Temperature {C}
  14.5920754632847,                       !- October Surface Ground Temperature {C}
  11.374036348653,                        !- November Surface Ground Temperature {C}
  7.68182621661674;                       !- December Surface Ground Temperature {C}

OS:ThermalZone,
  {6c563498-8284-459f-8447-af5714de8390}, !- Handle
  conditioned space,                      !- Name
  1,                                      !- Multiplier
  ,                                       !- Ceiling Height {m}
  692.06373070848,                        !- Volume {m3}
  ,                                       !- Floor Area {m2}
  ,                                       !- Zone Inside Convection Algorithm
  ,                                       !- Zone Outside Convection Algorithm
  ,                                       !- Zone Conditioning Equipment List Name
  {f116afb7-a968-4a3e-b02c-61a6549bca45}, !- Zone Air Inlet Port List
  {df844d3c-eb03-4f76-8eee-f2326b199e2e}, !- Zone Air Exhaust Port List
  {8dd32294-bbf8-4548-94a5-6d9409507a4e}, !- Zone Air Node Name
  {60500441-d13f-4304-9636-6d80b212b3e7}, !- Zone Return Air Port List
  ,                                       !- Primary Daylighting Control Name
  ,                                       !- Fraction of Zone Controlled by Primary Daylighting Control
  ,                                       !- Secondary Daylighting Control Name
  ,                                       !- Fraction of Zone Controlled by Secondary Daylighting Control
  ,                                       !- Illuminance Map Name
  ,                                       !- Group Rendering Name
  {57198251-69e9-41f9-8b4e-d2eb3873fa5c}, !- Thermostat Name
  No;                                     !- Use Ideal Air Loads

OS:Node,
  {1d0f1ad8-6628-4f8c-ad40-96a32b016822}, !- Handle
  Node 1,                                 !- Name
  {8dd32294-bbf8-4548-94a5-6d9409507a4e}, !- Inlet Port
  ;                                       !- Outlet Port

OS:Connection,
  {8dd32294-bbf8-4548-94a5-6d9409507a4e}, !- Handle
  {6c563498-8284-459f-8447-af5714de8390}, !- Source Object
  11,                                     !- Outlet Port
  {1d0f1ad8-6628-4f8c-ad40-96a32b016822}, !- Target Object
  2;                                      !- Inlet Port

OS:PortList,
  {f116afb7-a968-4a3e-b02c-61a6549bca45}, !- Handle
  {6c563498-8284-459f-8447-af5714de8390}, !- HVAC Component
  {1925a255-7077-4ce8-95eb-2f7a7beb4e32}; !- Port 1

OS:PortList,
  {df844d3c-eb03-4f76-8eee-f2326b199e2e}, !- Handle
  {6c563498-8284-459f-8447-af5714de8390}; !- HVAC Component

OS:PortList,
  {60500441-d13f-4304-9636-6d80b212b3e7}, !- Handle
  {6c563498-8284-459f-8447-af5714de8390}, !- HVAC Component
  {a2c85e91-b5b5-4732-a69c-e244fc7e8a4f}; !- Port 1

OS:Sizing:Zone,
  {4c7a0662-74f2-4610-ac0e-d4071762bea7}, !- Handle
  {6c563498-8284-459f-8447-af5714de8390}, !- Zone or ZoneList Name
  SupplyAirTemperature,                   !- Zone Cooling Design Supply Air Temperature Input Method
  14,                                     !- Zone Cooling Design Supply Air Temperature {C}
  11.11,                                  !- Zone Cooling Design Supply Air Temperature Difference {deltaC}
  SupplyAirTemperature,                   !- Zone Heating Design Supply Air Temperature Input Method
  40,                                     !- Zone Heating Design Supply Air Temperature {C}
  11.11,                                  !- Zone Heating Design Supply Air Temperature Difference {deltaC}
  0.0085,                                 !- Zone Cooling Design Supply Air Humidity Ratio {kg-H2O/kg-air}
  0.008,                                  !- Zone Heating Design Supply Air Humidity Ratio {kg-H2O/kg-air}
  ,                                       !- Zone Heating Sizing Factor
  ,                                       !- Zone Cooling Sizing Factor
  DesignDay,                              !- Cooling Design Air Flow Method
  ,                                       !- Cooling Design Air Flow Rate {m3/s}
  ,                                       !- Cooling Minimum Air Flow per Zone Floor Area {m3/s-m2}
  ,                                       !- Cooling Minimum Air Flow {m3/s}
  ,                                       !- Cooling Minimum Air Flow Fraction
  DesignDay,                              !- Heating Design Air Flow Method
  ,                                       !- Heating Design Air Flow Rate {m3/s}
  ,                                       !- Heating Maximum Air Flow per Zone Floor Area {m3/s-m2}
  ,                                       !- Heating Maximum Air Flow {m3/s}
  ,                                       !- Heating Maximum Air Flow Fraction
  No,                                     !- Account for Dedicated Outdoor Air System
  NeutralSupplyAir,                       !- Dedicated Outdoor Air System Control Strategy
  autosize,                               !- Dedicated Outdoor Air Low Setpoint Temperature for Design {C}
  autosize,                               !- Dedicated Outdoor Air High Setpoint Temperature for Design {C}
  Sensible Load Only No Latent Load,      !- Zone Load Sizing Method
  HumidityRatioDifference,                !- Zone Latent Cooling Design Supply Air Humidity Ratio Input Method
  ,                                       !- Zone Dehumidification Design Supply Air Humidity Ratio {kgWater/kgDryAir}
  0.005,                                  !- Zone Cooling Design Supply Air Humidity Ratio Difference {kgWater/kgDryAir}
  HumidityRatioDifference,                !- Zone Latent Heating Design Supply Air Humidity Ratio Input Method
  ,                                       !- Zone Humidification Design Supply Air Humidity Ratio {kgWater/kgDryAir}
  0.005,                                  !- Zone Humidification Design Supply Air Humidity Ratio Difference {kgWater/kgDryAir}
  ,                                       !- Zone Humidistat Dehumidification Set Point Schedule Name
  ,                                       !- Zone Humidistat Humidification Set Point Schedule Name
  ,                                       !- Design Zone Air Distribution Effectiveness in Cooling Mode
  ,                                       !- Design Zone Air Distribution Effectiveness in Heating Mode
  ,                                       !- Design Zone Secondary Recirculation Fraction {dimensionless}
  ,                                       !- Design Minimum Zone Ventilation Efficiency {dimensionless}
  Coincident;                             !- Sizing Option

OS:ZoneHVAC:EquipmentList,
  {f463f2b3-1c3b-4042-8c9a-e90a8d40bfb1}, !- Handle
  Zone HVAC Equipment List 1,             !- Name
  {6c563498-8284-459f-8447-af5714de8390}, !- Thermal Zone
  ,                                       !- Load Distribution Scheme
  {06d24cc3-5967-45b5-926a-87cf712ead56}, !- Zone Equipment 1
  1,                                      !- Zone Equipment Cooling Sequence 1
  1,                                      !- Zone Equipment Heating or No-Load Sequence 1
  {f7e0e9b8-e972-4ec9-9da7-b9f538f397d0}, !- Zone Equipment Sequential Cooling Fraction Schedule Name 1
  {659804a2-d045-4c8f-aa70-04277c94cce2}; !- Zone Equipment Sequential Heating Fraction Schedule Name 1

OS:AdditionalProperties,
  {dbd8445b-53f9-41d9-a288-b4857e2dab4f}, !- Handle
  {6c563498-8284-459f-8447-af5714de8390}, !- Object Name
  ObjectType,                             !- Feature Name 1
  String,                                 !- Feature Data Type 1
  conditioned space;                      !- Feature Value 1

OS:Space,
  {2321feea-29bd-46c7-bebc-4f57b0d16fec}, !- Handle
  conditioned space 1,                    !- Name
  ,                                       !- Space Type Name
  ,                                       !- Default Construction Set Name
  ,                                       !- Default Schedule Set Name
  ,                                       !- Direction of Relative North {deg}
  ,                                       !- X Origin {m}
  ,                                       !- Y Origin {m}
  ,                                       !- Z Origin {m}
  ,                                       !- Building Story Name
  {6c563498-8284-459f-8447-af5714de8390}, !- Thermal Zone Name
  ,                                       !- Part of Total Floor Area
  ,                                       !- Design Specification Outdoor Air Object Name
  ,                                       !- Building Unit Name
  692.06373070848;                        !- Volume {m3}

OS:Schedule:Ruleset,
  {08f51d19-6feb-4056-aeca-35792b319474}, !- Handle
  heating setpoint,                       !- Name
  {58f50683-fc0d-4b8d-b488-4cff4fa5e662}, !- Schedule Type Limits Name
  {88de802a-5ed4-4d38-8879-043ae3c31fef}; !- Default Day Schedule Name

OS:Schedule:Day,
  {88de802a-5ed4-4d38-8879-043ae3c31fef}, !- Handle
  heating setpoint default day,           !- Name
  {58f50683-fc0d-4b8d-b488-4cff4fa5e662}, !- Schedule Type Limits Name
  ,                                       !- Interpolate to Timestep
  24,                                     !- Hour 1
  0,                                      !- Minute 1
  0;                                      !- Value Until Time 1

OS:Schedule:Rule,
  {ab164c06-2377-4549-be69-0086292eb562}, !- Handle
  heating setpoint allday rule,           !- Name
  {08f51d19-6feb-4056-aeca-35792b319474}, !- Schedule Ruleset Name
  0,                                      !- Rule Order
  {eaaeeda4-0d5a-4ab6-b36d-a20f6a442042}, !- Day Schedule Name
  Yes,                                    !- Apply Sunday
  Yes,                                    !- Apply Monday
  Yes,                                    !- Apply Tuesday
  Yes,                                    !- Apply Wednesday
  Yes,                                    !- Apply Thursday
  Yes,                                    !- Apply Friday
  Yes,                                    !- Apply Saturday
  DateRange,                              !- Date Specification Type
  1,                                      !- Start Month
  1,                                      !- Start Day
  12,                                     !- End Month
  31;                                     !- End Day

OS:Schedule:Day,
  {eaaeeda4-0d5a-4ab6-b36d-a20f6a442042}, !- Handle
  heating setpoint day,                   !- Name
  {58f50683-fc0d-4b8d-b488-4cff4fa5e662}, !- Schedule Type Limits Name
  ,                                       !- Interpolate to Timestep
  24,                                     !- Hour 1
  0,                                      !- Minute 1
  20;                                     !- Value Until Time 1

OS:Schedule:Ruleset,
  {f00246c1-7472-46bb-b964-0a8f90fc8145}, !- Handle
  cooling setpoint,                       !- Name
  {58f50683-fc0d-4b8d-b488-4cff4fa5e662}, !- Schedule Type Limits Name
  {257bc422-f793-4988-b18f-1535eb949884}; !- Default Day Schedule Name

OS:Schedule:Day,
  {257bc422-f793-4988-b18f-1535eb949884}, !- Handle
  cooling setpoint default day,           !- Name
  {58f50683-fc0d-4b8d-b488-4cff4fa5e662}, !- Schedule Type Limits Name
  ,                                       !- Interpolate to Timestep
  24,                                     !- Hour 1
  0,                                      !- Minute 1
  0;                                      !- Value Until Time 1

OS:Schedule:Rule,
  {a9e77ffd-9ff7-4997-87f3-187658685efe}, !- Handle
  cooling setpoint allday rule,           !- Name
  {f00246c1-7472-46bb-b964-0a8f90fc8145}, !- Schedule Ruleset Name
  0,                                      !- Rule Order
  {172dc584-6b83-42cf-96c7-a1ca5b4d9c45}, !- Day Schedule Name
  Yes,                                    !- Apply Sunday
  Yes,                                    !- Apply Monday
  Yes,                                    !- Apply Tuesday
  Yes,                                    !- Apply Wednesday
  Yes,                                    !- Apply Thursday
  Yes,                                    !- Apply Friday
  Yes,                                    !- Apply Saturday
  DateRange,                              !- Date Specification Type
  1,                                      !- Start Month
  1,                                      !- Start Day
  12,                                     !- End Month
  31;                                     !- End Day

OS:Schedule:Day,
  {172dc584-6b83-42cf-96c7-a1ca5b4d9c45}, !- Handle
  cooling setpoint day,                   !- Name
  {58f50683-fc0d-4b8d-b488-4cff4fa5e662}, !- Schedule Type Limits Name
  ,                                       !- Interpolate to Timestep
  24,                                     !- Hour 1
  0,                                      !- Minute 1
  25.5555555555556;                       !- Value Until Time 1

OS:ThermostatSetpoint:DualSetpoint,
  {57198251-69e9-41f9-8b4e-d2eb3873fa5c}, !- Handle
  conditioned space temperature setpoint, !- Name
  {08f51d19-6feb-4056-aeca-35792b319474}, !- Heating Setpoint Temperature Schedule Name
  {f00246c1-7472-46bb-b964-0a8f90fc8145}, !- Cooling Setpoint Temperature Schedule Name
  0;                                      !- Temperature Difference Between Cutout And Setpoint {deltaC}

OS:ScheduleTypeLimits,
  {58f50683-fc0d-4b8d-b488-4cff4fa5e662}, !- Handle
  Temperature,                            !- Name
  ,                                       !- Lower Limit Value
  ,                                       !- Upper Limit Value
  Continuous,                             !- Numeric Type
  Temperature;                            !- Unit Type

OS:Surface,
  {66319d64-20a7-4505-80a5-07834676f83b}, !- Handle
  Roof1,                                  !- Name
  RoofCeiling,                            !- Surface Type
  {cfc6b482-2f36-4d6b-b93e-6b84493a0308}, !- Construction Name
  {2c4b3a41-cd6b-4b32-88d9-8abb7a8ea76d}, !- Space Name
  Outdoors,                               !- Outside Boundary Condition
  ,                                       !- Outside Boundary Condition Object
  SunExposed,                             !- Sun Exposure
  WindExposed,                            !- Wind Exposure
  ,                                       !- View Factor to Ground
  ,                                       !- Number of Vertices
  -26.9347048849634, 58.0557891618865, 2.4384, !- X,Y,Z Vertex 1 {m}
  -26.9347048849634, 46.7895631136661, 8.0715130241102, !- X,Y,Z Vertex 2 {m}
  -14.3386812381136, 46.7895631136661, 8.0715130241102, !- X,Y,Z Vertex 3 {m}
  -14.3386812381136, 58.0557891618865, 2.4384; !- X,Y,Z Vertex 4 {m}

OS:AdditionalProperties,
  {c5730052-7518-4889-ae42-0f9909b670b0}, !- Handle
  {66319d64-20a7-4505-80a5-07834676f83b}, !- Object Name
  Length,                                 !- Feature Name 1
  Double,                                 !- Feature Data Type 1
  41.325536899113608,                     !- Feature Value 1
  Width,                                  !- Feature Name 2
  Double,                                 !- Feature Data Type 2
  41.325536899113601,                     !- Feature Value 2
  Azimuth,                                !- Feature Name 3
  Integer,                                !- Feature Data Type 3
  0,                                      !- Feature Value 3
  Tilt,                                   !- Feature Name 4
  Double,                                 !- Feature Data Type 4
  0.5,                                    !- Feature Value 4
  SurfaceType,                            !- Feature Name 5
  String,                                 !- Feature Data Type 5
  Roof;                                   !- Feature Value 5

OS:ThermalZone,
  {339f07eb-2e4f-4dbd-8f2e-0e4f266f6ba3}, !- Handle
  attic - vented,                         !- Name
  1,                                      !- Multiplier
  ,                                       !- Ceiling Height {m}
  356.390921899745,                       !- Volume {m3}
  ,                                       !- Floor Area {m2}
  ,                                       !- Zone Inside Convection Algorithm
  ,                                       !- Zone Outside Convection Algorithm
  ,                                       !- Zone Conditioning Equipment List Name
  {f7b813c0-5fc7-429b-8162-3415704fabe5}, !- Zone Air Inlet Port List
  {3d67c3b7-392e-460b-b2eb-5874cae5476c}, !- Zone Air Exhaust Port List
  {7daec319-151e-439a-ad75-cde83cd46385}, !- Zone Air Node Name
  {3fb65b51-d4ab-4ab2-b49d-292a1125cccb}, !- Zone Return Air Port List
  ,                                       !- Primary Daylighting Control Name
  ,                                       !- Fraction of Zone Controlled by Primary Daylighting Control
  ,                                       !- Secondary Daylighting Control Name
  ,                                       !- Fraction of Zone Controlled by Secondary Daylighting Control
  ,                                       !- Illuminance Map Name
  ,                                       !- Group Rendering Name
  ,                                       !- Thermostat Name
  No;                                     !- Use Ideal Air Loads

OS:Node,
  {ed8b8932-c29a-4288-a39b-988b46feaa29}, !- Handle
  Node 2,                                 !- Name
  {7daec319-151e-439a-ad75-cde83cd46385}, !- Inlet Port
  ;                                       !- Outlet Port

OS:Connection,
  {7daec319-151e-439a-ad75-cde83cd46385}, !- Handle
  {339f07eb-2e4f-4dbd-8f2e-0e4f266f6ba3}, !- Source Object
  11,                                     !- Outlet Port
  {ed8b8932-c29a-4288-a39b-988b46feaa29}, !- Target Object
  2;                                      !- Inlet Port

OS:PortList,
  {f7b813c0-5fc7-429b-8162-3415704fabe5}, !- Handle
  {339f07eb-2e4f-4dbd-8f2e-0e4f266f6ba3}; !- HVAC Component

OS:PortList,
  {3d67c3b7-392e-460b-b2eb-5874cae5476c}, !- Handle
  {339f07eb-2e4f-4dbd-8f2e-0e4f266f6ba3}; !- HVAC Component

OS:PortList,
  {3fb65b51-d4ab-4ab2-b49d-292a1125cccb}, !- Handle
  {339f07eb-2e4f-4dbd-8f2e-0e4f266f6ba3}; !- HVAC Component

OS:Sizing:Zone,
  {d49c61e3-4f05-40ab-891b-329ae9da5b4e}, !- Handle
  {339f07eb-2e4f-4dbd-8f2e-0e4f266f6ba3}, !- Zone or ZoneList Name
  SupplyAirTemperature,                   !- Zone Cooling Design Supply Air Temperature Input Method
  14,                                     !- Zone Cooling Design Supply Air Temperature {C}
  11.11,                                  !- Zone Cooling Design Supply Air Temperature Difference {deltaC}
  SupplyAirTemperature,                   !- Zone Heating Design Supply Air Temperature Input Method
  40,                                     !- Zone Heating Design Supply Air Temperature {C}
  11.11,                                  !- Zone Heating Design Supply Air Temperature Difference {deltaC}
  0.0085,                                 !- Zone Cooling Design Supply Air Humidity Ratio {kg-H2O/kg-air}
  0.008,                                  !- Zone Heating Design Supply Air Humidity Ratio {kg-H2O/kg-air}
  ,                                       !- Zone Heating Sizing Factor
  ,                                       !- Zone Cooling Sizing Factor
  DesignDay,                              !- Cooling Design Air Flow Method
  ,                                       !- Cooling Design Air Flow Rate {m3/s}
  ,                                       !- Cooling Minimum Air Flow per Zone Floor Area {m3/s-m2}
  ,                                       !- Cooling Minimum Air Flow {m3/s}
  ,                                       !- Cooling Minimum Air Flow Fraction
  DesignDay,                              !- Heating Design Air Flow Method
  ,                                       !- Heating Design Air Flow Rate {m3/s}
  ,                                       !- Heating Maximum Air Flow per Zone Floor Area {m3/s-m2}
  ,                                       !- Heating Maximum Air Flow {m3/s}
  ,                                       !- Heating Maximum Air Flow Fraction
  No,                                     !- Account for Dedicated Outdoor Air System
  NeutralSupplyAir,                       !- Dedicated Outdoor Air System Control Strategy
  autosize,                               !- Dedicated Outdoor Air Low Setpoint Temperature for Design {C}
  autosize,                               !- Dedicated Outdoor Air High Setpoint Temperature for Design {C}
  Sensible Load Only No Latent Load,      !- Zone Load Sizing Method
  HumidityRatioDifference,                !- Zone Latent Cooling Design Supply Air Humidity Ratio Input Method
  ,                                       !- Zone Dehumidification Design Supply Air Humidity Ratio {kgWater/kgDryAir}
  0.005,                                  !- Zone Cooling Design Supply Air Humidity Ratio Difference {kgWater/kgDryAir}
  HumidityRatioDifference,                !- Zone Latent Heating Design Supply Air Humidity Ratio Input Method
  ,                                       !- Zone Humidification Design Supply Air Humidity Ratio {kgWater/kgDryAir}
  0.005,                                  !- Zone Humidification Design Supply Air Humidity Ratio Difference {kgWater/kgDryAir}
  ,                                       !- Zone Humidistat Dehumidification Set Point Schedule Name
  ,                                       !- Zone Humidistat Humidification Set Point Schedule Name
  ,                                       !- Design Zone Air Distribution Effectiveness in Cooling Mode
  ,                                       !- Design Zone Air Distribution Effectiveness in Heating Mode
  ,                                       !- Design Zone Secondary Recirculation Fraction {dimensionless}
  ,                                       !- Design Minimum Zone Ventilation Efficiency {dimensionless}
  Coincident;                             !- Sizing Option

OS:ZoneHVAC:EquipmentList,
  {a11cbcdc-66d0-49cd-8611-c5f1fa86c5c6}, !- Handle
  Zone HVAC Equipment List 2,             !- Name
  {339f07eb-2e4f-4dbd-8f2e-0e4f266f6ba3}; !- Thermal Zone

OS:AdditionalProperties,
  {2ffa9204-84a4-4644-a287-33f6cd2f2a9d}, !- Handle
  {339f07eb-2e4f-4dbd-8f2e-0e4f266f6ba3}, !- Object Name
  ObjectType,                             !- Feature Name 1
  String,                                 !- Feature Data Type 1
  attic - vented;                         !- Feature Value 1

OS:Space,
  {2c4b3a41-cd6b-4b32-88d9-8abb7a8ea76d}, !- Handle
  attic - vented 1,                       !- Name
  ,                                       !- Space Type Name
  ,                                       !- Default Construction Set Name
  ,                                       !- Default Schedule Set Name
  ,                                       !- Direction of Relative North {deg}
  ,                                       !- X Origin {m}
  ,                                       !- Y Origin {m}
  ,                                       !- Z Origin {m}
  ,                                       !- Building Story Name
  {339f07eb-2e4f-4dbd-8f2e-0e4f266f6ba3}, !- Thermal Zone Name
  ,                                       !- Part of Total Floor Area
  ,                                       !- Design Specification Outdoor Air Object Name
  ,                                       !- Building Unit Name
  356.390921899745;                       !- Volume {m3}

OS:Material,
  {0b1508b7-83d8-49ab-a566-279975c2e1c5}, !- Handle
  asphalt or fiberglass shingles,         !- Name
  Rough,                                  !- Roughness
  0.00635,                                !- Thickness {m}
  0.162714,                               !- Conductivity {W/m-K}
  1121.4,                                 !- Density {kg/m3}
  1465.45,                                !- Specific Heat {J/kg-K}
  0.9,                                    !- Thermal Absorptance
  0.85,                                   !- Solar Absorptance