
OS:Version,
  {f11ace83-fadf-49ca-9fd9-75df5d4606b1}, !- Handle
  3.10.0;                                 !- Version Identifier

OS:SimulationControl,
  {30fb921f-7e72-49fe-a2b3-6b2bbefc4174}, !- Handle
  ,                                       !- Do Zone Sizing Calculation
  ,                                       !- Do System Sizing Calculation
  ,                                       !- Do Plant Sizing Calculation
  No;                                     !- Run Simulation for Sizing Periods

OS:Timestep,
  {fbdb28ad-f3b5-4241-b2d1-6d466e062821}, !- Handle
  1;                                      !- Number of Timesteps per Hour

OS:ShadowCalculation,
  {97e5c595-d625-44f5-aedc-c47bc1acc555}, !- Handle
  PolygonClipping,                        !- Shading Calculation Method
  ,                                       !- Shading Calculation Update Frequency Method
  20,                                     !- Shading Calculation Update Frequency
  200,                                    !- Maximum Figures in Shadow Overlap Calculations
  ,                                       !- Polygon Clipping Algorithm
  512,                                    !- Pixel Counting Resolution
  ,                                       !- Sky Diffuse Modeling Algorithm
  No,                                     !- Output External Shading Calculation Results
  No,                                     !- Disable Self-Shading Within Shading Zone Groups
  No;                                     !- Disable Self-Shading From Shading Zone Groups to Other Zones

OS:SurfaceConvectionAlgorithm:Outside,
  {64cb8b62-9060-4c09-aebf-2ee3621602a4}, !- Handle
  DOE-2;                                  !- Algorithm

OS:SurfaceConvectionAlgorithm:Inside,
  {f3940677-23db-4322-940f-cae0087971d6}, !- Handle
  TARP;                                   !- Algorithm

OS:ZoneCapacitanceMultiplier:ResearchSpecial,
  {14638696-7ace-4c3f-8862-130ad38bc4ba}, !- Handle
  7,                                      !- Temperature Capacity Multiplier
  15,                                     !- Humidity Capacity Multiplier
  ;                                       !- Carbon Dioxide Capacity Multiplier

OS:ConvergenceLimits,
  {310ce31e-a1b0-43b0-8d6e-fde719a1f2d3}, !- Handle
  0;                                      !- Minimum System Timestep {minutes}

OS:RunPeriod,
  {89da22e7-e20a-479f-a261-b4e2d34582cd}, !- Handle
  Run Period 1,                           !- Name
  1,                                      !- Begin Month
  1,                                      !- Begin Day of Month
  12,                                     !- End Month
  31,                                     !- End Day of Month
  ,                                       !- Use Weather File Holidays and Special Days
  ,                                       !- Use Weather File Daylight Saving Period
  ,                                       !- Apply Weekend Holiday Rule
  ,                                       !- Use Weather File Rain Indicators
  ,                                       !- Use Weather File Snow Indicators
  ;                                       !- Number of Times Runperiod to be Repeated

OS:PerformancePrecisionTradeoffs,
  {3e30b0fc-444b-4a7c-93c6-676723613810}, !- Handle
  ,                                       !- Use Coil Direct Solutions
  CarrollMRT;                             !- Zone Radiant Exchange Algorithm

OS:WeatherFile,
  {ec1d4b81-c904-40c4-b5e4-0f797847aa54}, !- Handle
  Buffalo Niagara Intl Ap,                !- City
  NY,                                     !- State Province Region
  USA,                                    !- Country
  TMY3,                                   !- Data Source
  725280,                                 !- WMO Number
  42.93,                                  !- Latitude {deg}
  -78.73,                                 !- Longitude {deg}
  -5,                                     !- Time Zone {hr}
  215,                                    !- Elevation {m}
  /Users/nmoore/github/urbanopt-example-geojson-project/example_project/weather/USA_NY_Buffalo-Greater.Buffalo.Intl.AP.725280_TMY3.epw, !- Url
  6B50E0FF,                               !- Checksum
  ,                                       !- Start Date Actual Year
  Sunday;                                 !- Start Day of Week

OS:YearDescription,
  {30d7c2d1-1e75-4e5d-875c-bbcfb78b19e0}, !- Handle
  2007,                                   !- Calendar Year
  ,                                       !- Day of Week for Start Day
  ;                                       !- Is Leap Year

OS:Site,
  {227a0a88-baa8-4857-8859-fb683d5bab8c}, !- Handle
  Buffalo Niagara Intl Ap_NY,             !- Name
  42.93,                                  !- Latitude {deg}
  -78.73,                                 !- Longitude {deg}
  -5,                                     !- Time Zone {hr}
  215,                                    !- Elevation {m}
  Suburbs,                                !- Terrain
  Yes;                                    !- Keep Site Location Information

OS:RunPeriodControl:DaylightSavingTime,
  {37fce7ed-e2b3-49ea-8f9b-da4233de27e3}, !- Handle
  Mar 12,                                 !- Start Date
  Nov 5;                                  !- End Date

OS:Site:GroundTemperature:Shallow,
  {6e36e3a6-f18e-41f4-9219-9bcbc30b90fc}, !- Handle
  4.30207395723828,                       !- January Surface Ground Temperature {C}
  2.29327249652502,                       !- February Surface Ground Temperature {C}
  2.13240047156047,                       !- March Surface Ground Temperature {C}
  3.08567940719286,                       !- April Surface Ground Temperature {C}
  6.91256312497526,                       !- May Surface Ground Temperature {C}
  10.7216195949507,                       !- June Surface Ground Temperature {C}
  14.0238679822574,                       !- July Surface Ground Temperature {C}
  16.1157611184724,                       !- August Surface Ground Temperature {C}
  16.2934789303462,                       !- September Surface Ground Temperature {C}
  14.5920754632847,                       !- October Surface Ground Temperature {C}
  11.374036348653,                        !- November Surface Ground Temperature {C}
  7.68182621661674;                       !- December Surface Ground Temperature {C}

OS:ThermalZone,
  {d10570a7-dbc0-4c5e-be76-ee5040d05f3e}, !- Handle
  conditioned space,                      !- Name
  1,                                      !- Multiplier
  ,                                       !- Ceiling Height {m}
  346.03186535424,                        !- Volume {m3}
  ,                                       !- Floor Area {m2}
  ,                                       !- Zone Inside Convection Algorithm
  ,                                       !- Zone Outside Convection Algorithm
  ,                                       !- Zone Conditioning Equipment List Name
  {cfca9d56-6f6c-45c1-b560-4112b8929146}, !- Zone Air Inlet Port List
  {1050b112-c894-48fc-aa54-0434e2de8a67}, !- Zone Air Exhaust Port List
  {efbd3fd9-c3bb-46b2-b0b6-d69f87b06b48}, !- Zone Air Node Name
  {47a46f4b-822f-44b3-a5d5-34da2c6289d0}, !- Zone Return Air Port List
  ,                                       !- Primary Daylighting Control Name
  ,                                       !- Fraction of Zone Controlled by Primary Daylighting Control
  ,                                       !- Secondary Daylighting Control Name
  ,                                       !- Fraction of Zone Controlled by Secondary Daylighting Control
  ,                                       !- Illuminance Map Name
  ,                                       !- Group Rendering Name
  {145ad015-63b5-4abf-86be-afe4469398cd}, !- Thermostat Name
  No;                                     !- Use Ideal Air Loads

OS:Node,
  {488042e0-9a71-42a5-9e40-f4b1def3ffc2}, !- Handle
  Node 1,                                 !- Name
  {efbd3fd9-c3bb-46b2-b0b6-d69f87b06b48}, !- Inlet Port
  ;                                       !- Outlet Port

OS:Connection,
  {efbd3fd9-c3bb-46b2-b0b6-d69f87b06b48}, !- Handle
  {d10570a7-dbc0-4c5e-be76-ee5040d05f3e}, !- Source Object
  11,                                     !- Outlet Port
  {488042e0-9a71-42a5-9e40-f4b1def3ffc2}, !- Target Object
  2;                                      !- Inlet Port

OS:PortList,
  {cfca9d56-6f6c-45c1-b560-4112b8929146}, !- Handle
  {d10570a7-dbc0-4c5e-be76-ee5040d05f3e}, !- HVAC Component
  {efb5ffe9-eed6-4bcd-a01f-a61edf7e0fef}; !- Port 1

OS:PortList,
  {1050b112-c894-48fc-aa54-0434e2de8a67}, !- Handle
  {d10570a7-dbc0-4c5e-be76-ee5040d05f3e}; !- HVAC Component

OS:PortList,
  {47a46f4b-822f-44b3-a5d5-34da2c6289d0}, !- Handle
  {d10570a7-dbc0-4c5e-be76-ee5040d05f3e}, !- HVAC Component
  {3718dc18-195a-4a06-b92f-cc2ee52e3f02}; !- Port 1

OS:Sizing:Zone,
  {c5ec258c-121d-417c-92fa-e26c7a2e5730}, !- Handle
  {d10570a7-dbc0-4c5e-be76-ee5040d05f3e}, !- Zone or ZoneList Name
  SupplyAirTemperature,                   !- Zone Cooling Design Supply Air Temperature Input Method
  14,                                     !- Zone Cooling Design Supply Air Temperature {C}
  11.11,                                  !- Zone Cooling Design Supply Air Temperature Difference {deltaC}
  SupplyAirTemperature,                   !- Zone Heating Design Supply Air Temperature Input Method
  40,                                     !- Zone Heating Design Supply Air Temperature {C}
  11.11,                                  !- Zone Heating Design Supply Air Temperature Difference {deltaC}
  0.0085,                                 !- Zone Cooling Design Supply Air Humidity Ratio {kg-H2O/kg-air}
  0.008,                                  !- Zone Heating Design Supply Air Humidity Ratio {kg-H2O/kg-air}
  ,                                       !- Zone Heating Sizing Factor
  ,                                       !- Zone Cooling Sizing Factor
  DesignDay,                              !- Cooling Design Air Flow Method
  ,                                       !- Cooling Design Air Flow Rate {m3/s}
  ,                                       !- Cooling Minimum Air Flow per Zone Floor Area {m3/s-m2}
  ,                                       !- Cooling Minimum Air Flow {m3/s}
  ,                                       !- Cooling Minimum Air Flow Fraction
  DesignDay,                              !- Heating Design Air Flow Method
  ,                                       !- Heating Design Air Flow Rate {m3/s}
  ,                                       !- Heating Maximum Air Flow per Zone Floor Area {m3/s-m2}
  ,                                       !- Heating Maximum Air Flow {m3/s}
  ,                                       !- Heating Maximum Air Flow Fraction
  No,                                     !- Account for Dedicated Outdoor Air System
  NeutralSupplyAir,                       !- Dedicated Outdoor Air System Control Strategy
  autosize,                               !- Dedicated Outdoor Air Low Setpoint Temperature for Design {C}
  autosize,                               !- Dedicated Outdoor Air High Setpoint Temperature for Design {C}
  Sensible Load Only No Latent Load,      !- Zone Load Sizing Method
  HumidityRatioDifference,                !- Zone Latent Cooling Design Supply Air Humidity Ratio Input Method
  ,                                       !- Zone Dehumidification Design Supply Air Humidity Ratio {kgWater/kgDryAir}
  0.005,                                  !- Zone Cooling Design Supply Air Humidity Ratio Difference {kgWater/kgDryAir}
  HumidityRatioDifference,                !- Zone Latent Heating Design Supply Air Humidity Ratio Input Method
  ,                                       !- Zone Humidification Design Supply Air Humidity Ratio {kgWater/kgDryAir}
  0.005,                                  !- Zone Humidification Design Supply Air Humidity Ratio Difference {kgWater/kgDryAir}
  ,                                       !- Zone Humidistat Dehumidification Set Point Schedule Name
  ,                                       !- Zone Humidistat Humidification Set Point Schedule Name
  ,                                       !- Design Zone Air Distribution Effectiveness in Cooling Mode
  ,                                       !- Design Zone Air Distribution Effectiveness in Heating Mode
  ,                                       !- Design Zone Secondary Recirculation Fraction {dimensionless}
  ,                                       !- Design Minimum Zone Ventilation Efficiency {dimensionless}
  Coincident;                             !- Sizing Option

OS:ZoneHVAC:EquipmentList,
  {adfd6095-c732-457b-b8c9-9e93a2415242}, !- Handle
  Zone HVAC Equipment List 1,             !- Name
  {d10570a7-dbc0-4c5e-be76-ee5040d05f3e}, !- Thermal Zone
  ,                                       !- Load Distribution Scheme
  {6ee777dc-91dc-4c3a-972d-7a338eeae797}, !- Zone Equipment 1
  1,                                      !- Zone Equipment Cooling Sequence 1
  1,                                      !- Zone Equipment Heating or No-Load Sequence 1
  {3a27ab4a-76f5-4d13-b6e2-b36192228e2e}, !- Zone Equipment Sequential Cooling Fraction Schedule Name 1
  {913c3089-d53c-4bd3-9aef-bb2f769c9df3}; !- Zone Equipment Sequential Heating Fraction Schedule Name 1

OS:AdditionalProperties,
  {7a1d9d32-1e07-4147-9fd2-dd127dca463b}, !- Handle
  {d10570a7-dbc0-4c5e-be76-ee5040d05f3e}, !- Object Name
  ObjectType,                             !- Feature Name 1
  String,                                 !- Feature Data Type 1
  conditioned space;                      !- Feature Value 1

OS:Space,
  {c63bcea4-c69e-4d2b-aa4b-c53d459d6a72}, !- Handle
  conditioned space 1,                    !- Name
  ,                                       !- Space Type Name
  ,                                       !- Default Construction Set Name
  ,                                       !- Default Schedule Set Name
  ,                                       !- Direction of Relative North {deg}
  ,                                       !- X Origin {m}
  ,                                       !- Y Origin {m}
  ,                                       !- Z Origin {m}
  ,                                       !- Building Story Name
  {d10570a7-dbc0-4c5e-be76-ee5040d05f3e}, !- Thermal Zone Name
  ,                                       !- Part of Total Floor Area
  ,                                       !- Design Specification Outdoor Air Object Name
  ,                                       !- Building Unit Name
  346.03186535424;                        !- Volume {m3}

OS:Schedule:Ruleset,
  {54dfd53e-76e9-4867-a57c-9f63837151d8}, !- Handle
  heating setpoint,                       !- Name
  {da3fd684-92ad-4f32-a0a5-8488e5bad5a1}, !- Schedule Type Limits Name
  {e1c84604-f960-4879-a129-636a4bfbcf44}; !- Default Day Schedule Name

OS:Schedule:Day,
  {e1c84604-f960-4879-a129-636a4bfbcf44}, !- Handle
  heating setpoint default day,           !- Name
  {da3fd684-92ad-4f32-a0a5-8488e5bad5a1}, !- Schedule Type Limits Name
  ,                                       !- Interpolate to Timestep
  24,                                     !- Hour 1
  0,                                      !- Minute 1
  0;                                      !- Value Until Time 1

OS:Schedule:Rule,
  {fefdb1b8-daf5-4939-9cfb-3f383dabfec6}, !- Handle
  heating setpoint allday rule,           !- Name
  {54dfd53e-76e9-4867-a57c-9f63837151d8}, !- Schedule Ruleset Name
  0,                                      !- Rule Order
  {58e25728-729b-4e8d-81c4-7ece002eb78b}, !- Day Schedule Name
  Yes,                                    !- Apply Sunday
  Yes,                                    !- Apply Monday
  Yes,                                    !- Apply Tuesday
  Yes,                                    !- Apply Wednesday
  Yes,                                    !- Apply Thursday
  Yes,                                    !- Apply Friday
  Yes,                                    !- Apply Saturday
  DateRange,                              !- Date Specification Type
  1,                                      !- Start Month
  1,                                      !- Start Day
  12,                                     !- End Month
  31;                                     !- End Day

OS:Schedule:Day,
  {58e25728-729b-4e8d-81c4-7ece002eb78b}, !- Handle
  heating setpoint day,                   !- Name
  {da3fd684-92ad-4f32-a0a5-8488e5bad5a1}, !- Schedule Type Limits Name
  ,                                       !- Interpolate to Timestep
  24,                                     !- Hour 1
  0,                                      !- Minute 1
  20;                                     !- Value Until Time 1

OS:Schedule:Ruleset,
  {c3a7cb6d-726a-43cc-91eb-50d1488a039a}, !- Handle
  cooling setpoint,                       !- Name
  {da3fd684-92ad-4f32-a0a5-8488e5bad5a1}, !- Schedule Type Limits Name
  {0bc7fac1-b695-4e7b-aa32-61c7f8750f71}; !- Default Day Schedule Name

OS:Schedule:Day,
  {0bc7fac1-b695-4e7b-aa32-61c7f8750f71}, !- Handle
  cooling setpoint default day,           !- Name
  {da3fd684-92ad-4f32-a0a5-8488e5bad5a1}, !- Schedule Type Limits Name
  ,                                       !- Interpolate to Timestep
  24,                                     !- Hour 1
  0,                                      !- Minute 1
  0;                                      !- Value Until Time 1

OS:Schedule:Rule,
  {1c7e25b2-65c0-4d17-8027-66ac83b1b885}, !- Handle
  cooling setpoint allday rule,           !- Name
  {c3a7cb6d-726a-43cc-91eb-50d1488a039a}, !- Schedule Ruleset Name
  0,                                      !- Rule Order
  {dae66938-eca0-44d1-a80f-4807b24bd04c}, !- Day Schedule Name
  Yes,                                    !- Apply Sunday
  Yes,                                    !- Apply Monday
  Yes,                                    !- Apply Tuesday
  Yes,                                    !- Apply Wednesday
  Yes,                                    !- Apply Thursday
  Yes,                                    !- Apply Friday
  Yes,                                    !- Apply Saturday
  DateRange,                              !- Date Specification Type
  1,                                      !- Start Month
  1,                                      !- Start Day
  12,                                     !- End Month
  31;                                     !- End Day

OS:Schedule:Day,
  {dae66938-eca0-44d1-a80f-4807b24bd04c}, !- Handle
  cooling setpoint day,                   !- Name
  {da3fd684-92ad-4f32-a0a5-8488e5bad5a1}, !- Schedule Type Limits Name
  ,                                       !- Interpolate to Timestep
  24,                                     !- Hour 1
  0,                                      !- Minute 1
  25.5555555555556;                       !- Value Until Time 1

OS:ThermostatSetpoint:DualSetpoint,
  {145ad015-63b5-4abf-86be-afe4469398cd}, !- Handle
  conditioned space temperature setpoint, !- Name
  {54dfd53e-76e9-4867-a57c-9f63837151d8}, !- Heating Setpoint Temperature Schedule Name
  {c3a7cb6d-726a-43cc-91eb-50d1488a039a}, !- Cooling Setpoint Temperature Schedule Name
  0;                                      !- Temperature Difference Between Cutout And Setpoint {deltaC}

OS:ScheduleTypeLimits,
  {da3fd684-92ad-4f32-a0a5-8488e5bad5a1}, !- Handle
  Temperature,                            !- Name
  ,                                       !- Lower Limit Value
  ,                                       !- Upper Limit Value
  Continuous,                             !- Numeric Type
  Temperature;                            !- Unit Type

OS:Surface,
  {9646e367-591d-44ea-8751-e63197c78815}, !- Handle
  Roof1,                                  !- Name
  RoofCeiling,                            !- Surface Type
  {db1aed1f-0d60-46cf-ae9a-a0379aeaf471}, !- Construction Name
  {c63bcea4-c69e-4d2b-aa4b-c53d459d6a72}, !- Space Name
  Outdoors,                               !- Outside Boundary Condition
  ,                                       !- Outside Boundary Condition Object
  SunExposed,                             !- Sun Exposure
  WindExposed,                            !- Wind Exposure
  ,                                       !- View Factor to Ground
  ,                                       !- Number of Vertices
  -27.1507941683368, 33.2208099683368, 2.4384, !- X,Y,Z Vertex 1 {m}
  -27.1507941683368, 25.2543851312597, 6.42161241853859, !- X,Y,Z Vertex 2 {m}
  -18.2440604316632, 25.2543851312596, 6.42161241853859, !- X,Y,Z Vertex 3 {m}
  -18.2440604316632, 33.2208099683368, 2.4384; !- X,Y,Z Vertex 4 {m}

OS:AdditionalProperties,
  {416abf80-c9ca-45b6-9f4f-8ab58e6970d6}, !- Handle
  {9646e367-591d-44ea-8751-e63197c78815}, !- Object Name
  Length,                                 !- Feature Name 1
  Double,                                 !- Feature Data Type 1
  29.221567377538118,                     !- Feature Value 1
  Width,                                  !- Feature Name 2
  Double,                                 !- Feature Data Type 2
  29.221567377538118,                     !- Feature Value 2
  Azimuth,                                !- Feature Name 3
  Integer,                                !- Feature Data Type 3
  0,                                      !- Feature Value 3
  Tilt,                                   !- Feature Name 4
  Double,                                 !- Feature Data Type 4
  0.5,                                    !- Feature Value 4
  SurfaceType,                            !- Feature Name 5
  String,                                 !- Feature Data Type 5
  Roof;                                   !- Feature Value 5

OS:Material,
  {1457af41-dd17-4127-b399-97eeab248609}, !- Handle
  asphalt or fiberglass shingles,         !- Name
  Rough,                                  !- Roughness
  0.00635,                                !- Thickness {m}
  0.162714,                               !- Conductivity {W/m-K}
  1121.4,                                 !- Density {kg/m3}
  1465.45,                                !- Specific Heat {J/kg-K}
  0.9,                                    !- Thermal Absorptance
  0.85,                                   !- Solar Absorptance
  0.85;                                   !- Visible Absorptance

OS:Material,
  {58d876b2-689c-424d-ace3-b141089a0aa4}, !- Handle
  roof stud and cavity,                   !- Name
  Rough,                                  !- Roughness
  0.0889,                                 !- Thickness {m}
  0.468249472857624,                      !- Conductivity {W/m-K}
  50.32683,                               !- Density {kg/m3}
  1063.80987585548,                       !- Specific Heat {J/kg-K}
  0.9,                                    !- Thermal Absorptance
  0.7,                                    !- Solar Absorptance
  0.7;                                    !- Visible Absorptance

OS:Material,
  {584a2ed7-3aed-4ef8-bee1-51aa796f51ab}, !- Handle
  gypsum board,                           !- Name
  Rough,                                  !- Roughness
  0.00254,                                !- Thickness {m}
  0.1602906,                              !- Conductivity {W/m-K}
  801,                                    !- Density {kg/m3}
  837.4,                                  !- Specific Heat {J/kg-K}
  0.9,                                    !- Thermal Absorptance
  0.6,                                    !- Solar Absorptance
  0.6;                                    !- Visible Absorptance

OS:Construction,
  {db1aed1f-0d60-46cf-ae9a-a0379aeaf471}, !- Handle
  Roof1 construction,                     !- Name
  ,                                       !- Surface Rendering Name
  {1457af41-dd17-4127-b399-97eeab248609}, !- Layer 1
  {58d876b2-689c-424d-ace3-b141089a0aa4}, !- Layer 2
  {584a2ed7-3aed-4ef8-bee1-51aa796f51ab}; !- Layer 3

OS:Surface,
  {408fd445-a6f0-4a51-ba39-7dcbcebf38e8}, !- Handle
  Roof2,                                  !- Name
  RoofCeiling,                            !- Surface Type
  {ef9eb431-6e0c-4ccc-a031-49f96211f455}, !- Construction Name
  {c63bcea4-c69e-4d2b-aa4b-c53d459d6a72}, !- Space Name
  Outdoors,                               !- Outside Boundary Condition
  ,                                       !- Outside Boundary Condition Object
  SunExposed,                             !- Sun Exposure
  WindExposed,                            !- Wind Exposure
  ,                                       !- View Factor to Ground
  ,                                       !- Number of Vertices
  -24.3140762316632, -33.2208099683368, 2.4384, !- X,Y,Z Vertex 1 {m}
  -24.3140762316632, -25.2543851312597, 6.42161241853859, !- X,Y,Z Vertex 2 {m}
  -33.2208099683368, -25.2543851312597, 6.42161241853859, !- X,Y,Z Vertex 3 {m}
  -33.2208099683368, -33.2208099683368, 2.4384; !- X,Y,Z Vertex 4 {m}

OS:AdditionalProperties,
  {e3224aeb-131d-4d7a-a7b9-b4289dbfda69}, !- Handle
  {408fd445-a6f0-4a51-ba39-7dcbcebf38e8}, !- Object Name
  Length,                                 !- Feature Name 1
  Double,                                 !- Feature Data Type 1
  29.221567377538118,                     !- Feature Value 1
  Width,                                  !- Feature Name 2
  Double,                                 !- Feature Data Type 2
  29.221567377538118,                     !- Feature Value 2
  Azimuth,                                !- Feature Name 3
  Integer,                                !- Feature Data Type 3
  180,                                    !- Feature Value 3
  Tilt,                                   !- Feature Name 4
  Double,                                 !- Feature Data Type 4
  0.5,                                    !- Feature Value 4
  SurfaceType,                            !- Feature Name 5
  String,                                 !- Feature Data Type 5
  Roof;                                   !- Feature Value 5

OS:Construction,
  {ef9eb431-6e0c-4ccc-a031-49f96211f455}, !- Handle
  Roof2 construction,                     !- Name
  ,                                       !- Surface Rendering Name
  {1457af41-dd17-4127-b399-97eeab248609}, !- Layer 1
  {58d876b2-689c-424d-ace3-b141089a0aa4}, !- Layer 2
  {584a2ed7-3aed-4ef8-bee1-51aa796f51ab}; !- Layer 3

OS:Surface,
  {31fde136-e4e1-4613-8f37-467c515628d6}, !- Handle
  Wall1,                                  !- Name
  Wall,                                   !- Surface Type
  {8891b3d5-4af2-4beb-ae66-d915f86ca9b7}, !- Construction Name
  {c63bcea4-c69e-4d2b-aa4b-c53d459d6a72}, !- Space Name
  Outdoors,                               !- Outside Boundary Condition
  ,                                       !- Outside Boundary Condition Object
  SunExposed,                             !- Sun Exposure
  WindExposed,                            !- Wind Exposure
  ,                                       !- View Factor to Ground
  ,                                       !- Number of Vertices
  -32.2917795683368, 33.2208099683368, 0, !- X,Y,Z Vertex 1 {m}
  -32.2917795683368, 33.2208099683368, 4.8768, !- X,Y,Z Vertex 2 {m}
  -28.0798245683368, 33.2208099683368, 4.8768, !- X,Y,Z Vertex 3 {m}
  -28.0798245683368, 33.2208099683368, 0; !- X,Y,Z Vertex 4 {m}

OS:AdditionalProperties,
  {85add773-c3eb-43d8-9b21-ef3e78e4c611}, !- Handle
  {31fde136-e4e1-4613-8f37-467c515628d6}, !- Object Name
  Length,                                 !- Feature Name 1
  Double,                                 !- Feature Data Type 1
  13.81875,                               !- Feature Value 1
  Azimuth,                                !- Feature Name 2
  Integer,                                !- Feature Data Type 2
  0,                                      !- Feature Value 2
  Tilt,                                   !- Feature Name 3
  Double,                                 !- Feature Data Type 3
  90,                                     !- Feature Value 3
  SurfaceType,                            !- Feature Name 4
  String,                                 !- Feature Data Type 4
  Wall;                                   !- Feature Value 4

OS:Material,
  {b555c6d2-7461-441e-a34b-7211e7440c76}, !- Handle
  wood siding,                            !- Name
  Rough,                                  !- Roughness
  0.0254,                                 !- Thickness {m}
  0.1024175,                              !- Conductivity {W/m-K}
  544.68,                                 !- Density {kg/m3}
  1172.36,                                !- Specific Heat {J/kg-K}
  0.9,                                    !- Thermal Absorptance
  0.7,                                    !- Solar Absorptance
  0.7;                                    !- Visible Absorptance

OS:Material,
  {7c007b64-a23d-4ef2-926f-f784e43aebe5}, !- Handle
  osb sheathing 0.5 in.,                  !- Name
  Rough,                                  !- Roughness
  0.0127,                                 !- Thickness {m}
  0.1154577,                              !- Conductivity {W/m-K}
  512.64,                                 !- Density {kg/m3}
  1214.23,                                !- Specific Heat {J/kg-K}
  0.9,                                    !- Thermal Absorptance
  0.7,                                    !- Solar Absorptance
  0.7;                                    !- Visible Absorptance

OS:Material,
  {e6ecce32-ef47-4d06-8a05-5aa7f21a6b3f}, !- Handle
  wall stud and cavity,                   !- Name
  Rough,                                  !- Roughness
  0.1397,                                 !- Thickness {m}
  0.0929021674204099,                     !- Conductivity {W/m-K}
  139.0536,                               !- Density {kg/m3}
  1170.23755760369,                       !- Specific Heat {J/kg-K}
  0.9,                                    !- Thermal Absorptance
  0.7,                                    !- Solar Absorptance