
OS:Version,
  {e49b19d7-6256-43c6-9a46-29bf32bf79ae}, !- Handle
  3.9.0;                                  !- Version Identifier

OS:SimulationControl,
  {04c28b36-f025-4681-b0fb-ad606e85a536}, !- Handle
  ,                                       !- Do Zone Sizing Calculation
  ,                                       !- Do System Sizing Calculation
  ,                                       !- Do Plant Sizing Calculation
  No;                                     !- Run Simulation for Sizing Periods

OS:Timestep,
  {5464e5eb-4c4d-437e-9b1a-a8d691114f63}, !- Handle
  1;                                      !- Number of Timesteps per Hour

OS:ShadowCalculation,
  {f2fedf59-146b-41b7-a8a5-e124e63cdb5a}, !- Handle
  PolygonClipping,                        !- Shading Calculation Method
  ,                                       !- Shading Calculation Update Frequency Method
  20,                                     !- Shading Calculation Update Frequency
  200,                                    !- Maximum Figures in Shadow Overlap Calculations
  ,                                       !- Polygon Clipping Algorithm
  512,                                    !- Pixel Counting Resolution
  ,                                       !- Sky Diffuse Modeling Algorithm
  No,                                     !- Output External Shading Calculation Results
  No,                                     !- Disable Self-Shading Within Shading Zone Groups
  No;                                     !- Disable Self-Shading From Shading Zone Groups to Other Zones

OS:SurfaceConvectionAlgorithm:Outside,
  {e3b62e91-5994-4366-ab37-a5bd4acbf910}, !- Handle
  DOE-2;                                  !- Algorithm

OS:SurfaceConvectionAlgorithm:Inside,
  {b1996499-4152-4e85-ba77-a83522c2d869}, !- Handle
  TARP;                                   !- Algorithm

OS:ZoneCapacitanceMultiplier:ResearchSpecial,
  {68cbb172-e111-4d75-a097-cdeec2c8599d}, !- Handle
  7,                                      !- Temperature Capacity Multiplier
  15,                                     !- Humidity Capacity Multiplier
  ;                                       !- Carbon Dioxide Capacity Multiplier

OS:ConvergenceLimits,
  {12ce9274-27b0-4692-a0dd-cee22ead8f38}, !- Handle
  0;                                      !- Minimum System Timestep {minutes}

OS:RunPeriod,
  {3b4a620b-756c-4fb5-ab1a-35fc9e4d034b}, !- Handle
  Run Period 1,                           !- Name
  1,                                      !- Begin Month
  1,                                      !- Begin Day of Month
  12,                                     !- End Month
  31,                                     !- End Day of Month
  ,                                       !- Use Weather File Holidays and Special Days
  ,                                       !- Use Weather File Daylight Saving Period
  ,                                       !- Apply Weekend Holiday Rule
  ,                                       !- Use Weather File Rain Indicators
  ,                                       !- Use Weather File Snow Indicators
  ;                                       !- Number of Times Runperiod to be Repeated

OS:PerformancePrecisionTradeoffs,
  {ee3d4cbc-9fff-48d6-ae0c-e3b87475f44d}, !- Handle
  ,                                       !- Use Coil Direct Solutions
  CarrollMRT;                             !- Zone Radiant Exchange Algorithm

OS:WeatherFile,
  {4e29259a-2eab-4c2f-91ae-45e2a539dc08}, !- Handle
  Buffalo Niagara Intl Ap,                !- City
  NY,                                     !- State Province Region
  USA,                                    !- Country
  TMY3,                                   !- Data Source
  725280,                                 !- WMO Number
  42.93,                                  !- Latitude {deg}
  -78.73,                                 !- Longitude {deg}
  -5,                                     !- Time Zone {hr}
  215,                                    !- Elevation {m}
  /Users/nmoore/github/urbanopt-example-geojson-project/example_project/weather/USA_NY_Buffalo-Greater.Buffalo.Intl.AP.725280_TMY3.epw, !- Url
  6B50E0FF,                               !- Checksum
  ,                                       !- Start Date Actual Year
  Sunday;                                 !- Start Day of Week

OS:YearDescription,
  {3cd25247-84aa-432f-bd2c-a56e5bb86c6b}, !- Handle
  2007,                                   !- Calendar Year
  ,                                       !- Day of Week for Start Day
  ;                                       !- Is Leap Year

OS:Site,
  {bd69ff4a-ea0b-4980-b96d-d9c34f40ca00}, !- Handle
  Buffalo Niagara Intl Ap_NY,             !- Name
  42.93,                                  !- Latitude {deg}
  -78.73,                                 !- Longitude {deg}
  -5,                                     !- Time Zone {hr}
  215,                                    !- Elevation {m}
  Suburbs,                                !- Terrain
  Yes;                                    !- Keep Site Location Information

OS:RunPeriodControl:DaylightSavingTime,
  {85cc4bce-66c3-4ae3-9014-de5ee8ccc835}, !- Handle
  Mar 12,                                 !- Start Date
  Nov 5;                                  !- End Date

OS:Site:GroundTemperature:Shallow,
  {fba4767a-addb-46f7-a8d5-dec88acaf1f6}, !- Handle
  4.30207395723828,                       !- January Surface Ground Temperature {C}
  2.29327249652502,                       !- February Surface Ground Temperature {C}
  2.13240047156047,                       !- March Surface Ground Temperature {C}
  3.08567940719286,                       !- April Surface Ground Temperature {C}
  6.91256312497526,                       !- May Surface Ground Temperature {C}
  10.7216195949507,                       !- June Surface Ground Temperature {C}
  14.0238679822574,                       !- July Surface Ground Temperature {C}
  16.1157611184724,                       !- August Surface Ground Temperature {C}
  16.2934789303462,                       !- September Surface Ground Temperature {C}
  14.5920754632847,                       !- October Surface Ground Temperature {C}
  11.374036348653,                        !- November Surface Ground Temperature {C}
  7.68182621661674;                       !- December Surface Ground Temperature {C}

OS:ThermalZone,
  {048addb7-9b54-4c49-81f1-c2e606f140c6}, !- Handle
  conditioned space,                      !- Name
  1,                                      !- Multiplier
  ,                                       !- Ceiling Height {m}
  346.03186535424,                        !- Volume {m3}
  ,                                       !- Floor Area {m2}
  ,                                       !- Zone Inside Convection Algorithm
  ,                                       !- Zone Outside Convection Algorithm
  ,                                       !- Zone Conditioning Equipment List Name
  {26cd3a57-b61e-4849-988e-38d40d7f5959}, !- Zone Air Inlet Port List
  {e349f107-80d7-4ab8-8666-e0b318c524d6}, !- Zone Air Exhaust Port List
  {c953246f-6672-4a2f-bdef-18e634e986cc}, !- Zone Air Node Name
  {0b42c77e-1a31-467b-8279-733f0545b4d4}, !- Zone Return Air Port List
  ,                                       !- Primary Daylighting Control Name
  ,                                       !- Fraction of Zone Controlled by Primary Daylighting Control
  ,                                       !- Secondary Daylighting Control Name
  ,                                       !- Fraction of Zone Controlled by Secondary Daylighting Control
  ,                                       !- Illuminance Map Name
  ,                                       !- Group Rendering Name
  {f28ab272-439a-4d7e-b3d0-3ffe875a3ce5}, !- Thermostat Name
  No;                                     !- Use Ideal Air Loads

OS:Node,
  {183a1c7e-df87-422f-a5f5-cd28394cdbd2}, !- Handle
  Node 1,                                 !- Name
  {c953246f-6672-4a2f-bdef-18e634e986cc}, !- Inlet Port
  ;                                       !- Outlet Port

OS:Connection,
  {c953246f-6672-4a2f-bdef-18e634e986cc}, !- Handle
  {048addb7-9b54-4c49-81f1-c2e606f140c6}, !- Source Object
  11,                                     !- Outlet Port
  {183a1c7e-df87-422f-a5f5-cd28394cdbd2}, !- Target Object
  2;                                      !- Inlet Port

OS:PortList,
  {26cd3a57-b61e-4849-988e-38d40d7f5959}, !- Handle
  {048addb7-9b54-4c49-81f1-c2e606f140c6}, !- HVAC Component
  {573e23c0-c007-442c-8c7b-4e2814d77130}; !- Port 1

OS:PortList,
  {e349f107-80d7-4ab8-8666-e0b318c524d6}, !- Handle
  {048addb7-9b54-4c49-81f1-c2e606f140c6}; !- HVAC Component

OS:PortList,
  {0b42c77e-1a31-467b-8279-733f0545b4d4}, !- Handle
  {048addb7-9b54-4c49-81f1-c2e606f140c6}, !- HVAC Component
  {425ec710-aaa2-4ee4-86fa-14cfa5dda172}; !- Port 1

OS:Sizing:Zone,
  {152968d2-ac23-4882-8959-9da61566b0ff}, !- Handle
  {048addb7-9b54-4c49-81f1-c2e606f140c6}, !- Zone or ZoneList Name
  SupplyAirTemperature,                   !- Zone Cooling Design Supply Air Temperature Input Method
  14,                                     !- Zone Cooling Design Supply Air Temperature {C}
  11.11,                                  !- Zone Cooling Design Supply Air Temperature Difference {deltaC}
  SupplyAirTemperature,                   !- Zone Heating Design Supply Air Temperature Input Method
  40,                                     !- Zone Heating Design Supply Air Temperature {C}
  11.11,                                  !- Zone Heating Design Supply Air Temperature Difference {deltaC}
  0.0085,                                 !- Zone Cooling Design Supply Air Humidity Ratio {kg-H2O/kg-air}
  0.008,                                  !- Zone Heating Design Supply Air Humidity Ratio {kg-H2O/kg-air}
  ,                                       !- Zone Heating Sizing Factor
  ,                                       !- Zone Cooling Sizing Factor
  DesignDay,                              !- Cooling Design Air Flow Method
  ,                                       !- Cooling Design Air Flow Rate {m3/s}
  ,                                       !- Cooling Minimum Air Flow per Zone Floor Area {m3/s-m2}
  ,                                       !- Cooling Minimum Air Flow {m3/s}
  ,                                       !- Cooling Minimum Air Flow Fraction
  DesignDay,                              !- Heating Design Air Flow Method
  ,                                       !- Heating Design Air Flow Rate {m3/s}
  ,                                       !- Heating Maximum Air Flow per Zone Floor Area {m3/s-m2}
  ,                                       !- Heating Maximum Air Flow {m3/s}
  ,                                       !- Heating Maximum Air Flow Fraction
  No,                                     !- Account for Dedicated Outdoor Air System
  NeutralSupplyAir,                       !- Dedicated Outdoor Air System Control Strategy
  autosize,                               !- Dedicated Outdoor Air Low Setpoint Temperature for Design {C}
  autosize,                               !- Dedicated Outdoor Air High Setpoint Temperature for Design {C}
  Sensible Load Only No Latent Load,      !- Zone Load Sizing Method
  HumidityRatioDifference,                !- Zone Latent Cooling Design Supply Air Humidity Ratio Input Method
  ,                                       !- Zone Dehumidification Design Supply Air Humidity Ratio {kgWater/kgDryAir}
  0.005,                                  !- Zone Cooling Design Supply Air Humidity Ratio Difference {kgWater/kgDryAir}
  HumidityRatioDifference,                !- Zone Latent Heating Design Supply Air Humidity Ratio Input Method
  ,                                       !- Zone Humidification Design Supply Air Humidity Ratio {kgWater/kgDryAir}
  0.005,                                  !- Zone Humidification Design Supply Air Humidity Ratio Difference {kgWater/kgDryAir}
  ,                                       !- Zone Humidistat Dehumidification Set Point Schedule Name
  ,                                       !- Zone Humidistat Humidification Set Point Schedule Name
  ,                                       !- Design Zone Air Distribution Effectiveness in Cooling Mode
  ,                                       !- Design Zone Air Distribution Effectiveness in Heating Mode
  ,                                       !- Design Zone Secondary Recirculation Fraction {dimensionless}
  ,                                       !- Design Minimum Zone Ventilation Efficiency {dimensionless}
  Coincident;                             !- Sizing Option

OS:ZoneHVAC:EquipmentList,
  {183e648b-7fc7-48f1-b395-7c0a92368be4}, !- Handle
  Zone HVAC Equipment List 1,             !- Name
  {048addb7-9b54-4c49-81f1-c2e606f140c6}, !- Thermal Zone
  ,                                       !- Load Distribution Scheme
  {585160df-9bc2-494a-b5e3-05779708758b}, !- Zone Equipment 1
  1,                                      !- Zone Equipment Cooling Sequence 1
  1,                                      !- Zone Equipment Heating or No-Load Sequence 1
  {e2662fb9-2483-472b-b851-a172ed886728}, !- Zone Equipment Sequential Cooling Fraction Schedule Name 1
  {2e9a1255-fd51-411e-8e16-c2083c96cb34}; !- Zone Equipment Sequential Heating Fraction Schedule Name 1

OS:AdditionalProperties,
  {77a7a87a-9da4-4b2b-96b2-37ba5c27546b}, !- Handle
  {048addb7-9b54-4c49-81f1-c2e606f140c6}, !- Object Name
  ObjectType,                             !- Feature Name 1
  String,                                 !- Feature Data Type 1
  conditioned space;                      !- Feature Value 1

OS:Space,
  {ef962ccf-956b-48e7-ad6c-ec9d986fee95}, !- Handle
  conditioned space 1,                    !- Name
  ,                                       !- Space Type Name
  ,                                       !- Default Construction Set Name
  ,                                       !- Default Schedule Set Name
  ,                                       !- Direction of Relative North {deg}
  ,                                       !- X Origin {m}
  ,                                       !- Y Origin {m}
  ,                                       !- Z Origin {m}
  ,                                       !- Building Story Name
  {048addb7-9b54-4c49-81f1-c2e606f140c6}, !- Thermal Zone Name
  ,                                       !- Part of Total Floor Area
  ,                                       !- Design Specification Outdoor Air Object Name
  ,                                       !- Building Unit Name
  346.03186535424;                        !- Volume {m3}

OS:Schedule:Ruleset,
  {15783f1e-145f-4f27-ba2d-333cae6d781f}, !- Handle
  heating setpoint,                       !- Name
  {1e9a1f26-5797-4406-8bf7-afc5d031ac48}, !- Schedule Type Limits Name
  {158b467e-42d7-4059-b753-9cad342dc9b8}; !- Default Day Schedule Name

OS:Schedule:Day,
  {158b467e-42d7-4059-b753-9cad342dc9b8}, !- Handle
  heating setpoint default day,           !- Name
  {1e9a1f26-5797-4406-8bf7-afc5d031ac48}, !- Schedule Type Limits Name
  ,                                       !- Interpolate to Timestep
  24,                                     !- Hour 1
  0,                                      !- Minute 1
  0;                                      !- Value Until Time 1

OS:Schedule:Rule,
  {7e5ccd6e-3e7f-4b2b-b955-9cd6c13bd86f}, !- Handle
  heating setpoint allday rule,           !- Name
  {15783f1e-145f-4f27-ba2d-333cae6d781f}, !- Schedule Ruleset Name
  0,                                      !- Rule Order
  {5f70578b-4461-4bfa-889c-4e3878c491da}, !- Day Schedule Name
  Yes,                                    !- Apply Sunday
  Yes,                                    !- Apply Monday
  Yes,                                    !- Apply Tuesday
  Yes,                                    !- Apply Wednesday
  Yes,                                    !- Apply Thursday
  Yes,                                    !- Apply Friday
  Yes,                                    !- Apply Saturday
  DateRange,                              !- Date Specification Type
  1,                                      !- Start Month
  1,                                      !- Start Day
  12,                                     !- End Month
  31;                                     !- End Day

OS:Schedule:Day,
  {5f70578b-4461-4bfa-889c-4e3878c491da}, !- Handle
  heating setpoint day,                   !- Name
  {1e9a1f26-5797-4406-8bf7-afc5d031ac48}, !- Schedule Type Limits Name
  ,                                       !- Interpolate to Timestep
  24,                                     !- Hour 1
  0,                                      !- Minute 1
  20;                                     !- Value Until Time 1

OS:Schedule:Ruleset,
  {f0e357a4-597c-476f-9d1e-d9550459caf9}, !- Handle
  cooling setpoint,                       !- Name
  {1e9a1f26-5797-4406-8bf7-afc5d031ac48}, !- Schedule Type Limits Name
  {78454cb0-c195-41d3-8f2e-e4ad5f8d279b}; !- Default Day Schedule Name

OS:Schedule:Day,
  {78454cb0-c195-41d3-8f2e-e4ad5f8d279b}, !- Handle
  cooling setpoint default day,           !- Name
  {1e9a1f26-5797-4406-8bf7-afc5d031ac48}, !- Schedule Type Limits Name
  ,                                       !- Interpolate to Timestep
  24,                                     !- Hour 1
  0,                                      !- Minute 1
  0;                                      !- Value Until Time 1

OS:Schedule:Rule,
  {62f5c920-8838-4491-b2f2-12a49baaf321}, !- Handle
  cooling setpoint allday rule,           !- Name
  {f0e357a4-597c-476f-9d1e-d9550459caf9}, !- Schedule Ruleset Name
  0,                                      !- Rule Order
  {62d4cbdf-f62a-46f4-87ef-4521fc77b8d3}, !- Day Schedule Name
  Yes,                                    !- Apply Sunday
  Yes,                                    !- Apply Monday
  Yes,                                    !- Apply Tuesday
  Yes,                                    !- Apply Wednesday
  Yes,                                    !- Apply Thursday
  Yes,                                    !- Apply Friday
  Yes,                                    !- Apply Saturday
  DateRange,                              !- Date Specification Type
  1,                                      !- Start Month
  1,                                      !- Start Day
  12,                                     !- End Month
  31;                                     !- End Day

OS:Schedule:Day,
  {62d4cbdf-f62a-46f4-87ef-4521fc77b8d3}, !- Handle
  cooling setpoint day,                   !- Name
  {1e9a1f26-5797-4406-8bf7-afc5d031ac48}, !- Schedule Type Limits Name
  ,                                       !- Interpolate to Timestep
  24,                                     !- Hour 1
  0,                                      !- Minute 1
  25.5555555555556;                       !- Value Until Time 1

OS:ThermostatSetpoint:DualSetpoint,
  {f28ab272-439a-4d7e-b3d0-3ffe875a3ce5}, !- Handle
  conditioned space temperature setpoint, !- Name
  {15783f1e-145f-4f27-ba2d-333cae6d781f}, !- Heating Setpoint Temperature Schedule Name
  {f0e357a4-597c-476f-9d1e-d9550459caf9}, !- Cooling Setpoint Temperature Schedule Name
  0;                                      !- Temperature Difference Between Cutout And Setpoint {deltaC}

OS:ScheduleTypeLimits,
  {1e9a1f26-5797-4406-8bf7-afc5d031ac48}, !- Handle
  Temperature,                            !- Name
  ,                                       !- Lower Limit Value
  ,                                       !- Upper Limit Value
  Continuous,                             !- Numeric Type
  Temperature;                            !- Unit Type

OS:Surface,
  {34830d7d-894d-4ab6-95b3-4ef3e1b6e926}, !- Handle
  Roof1,                                  !- Name
  RoofCeiling,                            !- Surface Type
  {e02bd708-ed80-4b64-856b-ff1ee08e1bf7}, !- Construction Name
  {ef962ccf-956b-48e7-ad6c-ec9d986fee95}, !- Space Name
  Outdoors,                               !- Outside Boundary Condition
  ,                                       !- Outside Boundary Condition Object
  SunExposed,                             !- Sun Exposure
  WindExposed,                            !- Wind Exposure
  ,                                       !- View Factor to Ground
  ,                                       !- Number of Vertices
  -27.1507941683368, 33.2208099683368, 2.4384, !- X,Y,Z Vertex 1 {m}
  -27.1507941683368, 25.2543851312597, 6.42161241853859, !- X,Y,Z Vertex 2 {m}
  -18.2440604316632, 25.2543851312596, 6.42161241853859, !- X,Y,Z Vertex 3 {m}
  -18.2440604316632, 33.2208099683368, 2.4384; !- X,Y,Z Vertex 4 {m}

OS:AdditionalProperties,
  {b3f9bcf4-7653-4d9f-b2ec-ff53c7ce578e}, !- Handle
  {34830d7d-894d-4ab6-95b3-4ef3e1b6e926}, !- Object Name
  Length,                                 !- Feature Name 1
  Double,                                 !- Feature Data Type 1
  29.221567377538118,                     !- Feature Value 1
  Width,                                  !- Feature Name 2
  Double,                                 !- Feature Data Type 2
  29.221567377538118,                     !- Feature Value 2
  Azimuth,                                !- Feature Name 3
  Integer,                                !- Feature Data Type 3
  0,                                      !- Feature Value 3
  Tilt,                                   !- Feature Name 4
  Double,                                 !- Feature Data Type 4
  0.5,                                    !- Feature Value 4
  SurfaceType,                            !- Feature Name 5
  String,                                 !- Feature Data Type 5
  Roof;                                   !- Feature Value 5

OS:Material,
  {73f023b2-21a6-421f-b0ea-cb9ae44070c9}, !- Handle
  asphalt or fiberglass shingles,         !- Name
  Rough,                                  !- Roughness
  0.00635,                                !- Thickness {m}
  0.162714,                               !- Conductivity {W/m-K}
  1121.4,                                 !- Density {kg/m3}
  1465.45,                                !- Specific Heat {J/kg-K}
  0.9,                                    !- Thermal Absorptance
  0.85,                                   !- Solar Absorptance
  0.85;                                   !- Visible Absorptance

OS:Material,
  {5b79ff83-a3cd-4aca-ba67-cddfdb5175e4}, !- Handle
  roof stud and cavity,                   !- Name
  Rough,                                  !- Roughness
  0.0889,                                 !- Thickness {m}
  0.468249472857624,                      !- Conductivity {W/m-K}
  50.32683,                               !- Density {kg/m3}
  1063.80987585548,                       !- Specific Heat {J/kg-K}
  0.9,                                    !- Thermal Absorptance
  0.7,                                    !- Solar Absorptance
  0.7;                                    !- Visible Absorptance

OS:Material,
  {17c9c30d-ed7a-4ad0-8e0b-0e1c9815ca3b}, !- Handle
  gypsum board,                           !- Name
  Rough,                                  !- Roughness
  0.00254,                                !- Thickness {m}
  0.1602906,                              !- Conductivity {W/m-K}
  801,                                    !- Density {kg/m3}
  837.4,                                  !- Specific Heat {J/kg-K}
  0.9,                                    !- Thermal Absorptance
  0.6,                                    !- Solar Absorptance
  0.6;                                    !- Visible Absorptance

OS:Construction,
  {e02bd708-ed80-4b64-856b-ff1ee08e1bf7}, !- Handle
  Roof1 construction,                     !- Name
  ,                                       !- Surface Rendering Name
  {73f023b2-21a6-421f-b0ea-cb9ae44070c9}, !- Layer 1
  {5b79ff83-a3cd-4aca-ba67-cddfdb5175e4}, !- Layer 2
  {17c9c30d-ed7a-4ad0-8e0b-0e1c9815ca3b}; !- Layer 3

OS:Surface,
  {61cf4ff8-c93e-4721-8adc-7490406bf12a}, !- Handle
  Roof2,                                  !- Name
  RoofCeiling,                            !- Surface Type
  {f657e54a-c47a-4ca9-8153-9d5203bd69be}, !- Construction Name
  {ef962ccf-956b-48e7-ad6c-ec9d986fee95}, !- Space Name
  Outdoors,                               !- Outside Boundary Condition
  ,                                       !- Outside Boundary Condition Object
  SunExposed,                             !- Sun Exposure
  WindExposed,                            !- Wind Exposure
  ,                                       !- View Factor to Ground
  ,                                       !- Number of Vertices
  -24.3140762316632, -33.2208099683368, 2.4384, !- X,Y,Z Vertex 1 {m}
  -24.3140762316632, -25.2543851312597, 6.42161241853859, !- X,Y,Z Vertex 2 {m}
  -33.2208099683368, -25.2543851312597, 6.42161241853859, !- X,Y,Z Vertex 3 {m}
  -33.2208099683368, -33.2208099683368, 2.4384; !- X,Y,Z Vertex 4 {m}

OS:AdditionalProperties,
  {c744b231-a0c2-4727-bda7-2965a041e487}, !- Handle
  {61cf4ff8-c93e-4721-8adc-7490406bf12a}, !- Object Name
  Length,                                 !- Feature Name 1
  Double,                                 !- Feature Data Type 1
  29.221567377538118,                     !- Feature Value 1
  Width,                                  !- Feature Name 2
  Double,                                 !- Feature Data Type 2
  29.221567377538118,                     !- Feature Value 2
  Azimuth,                                !- Feature Name 3
  Integer,                                !- Feature Data Type 3
  180,                                    !- Feature Value 3
  Tilt,                                   !- Feature Name 4
  Double,                                 !- Feature Data Type 4
  0.5,                                    !- Feature Value 4
  SurfaceType,                            !- Feature Name 5
  String,                                 !- Feature Data Type 5
  Roof;                                   !- Feature Value 5

OS:Construction,
  {f657e54a-c47a-4ca9-8153-9d5203bd69be}, !- Handle
  Roof2 construction,                     !- Name
  ,                                       !- Surface Rendering Name
  {73f023b2-21a6-421f-b0ea-cb9ae44070c9}, !- Layer 1
  {5b79ff83-a3cd-4aca-ba67-cddfdb5175e4}, !- Layer 2
  {17c9c30d-ed7a-4ad0-8e0b-0e1c9815ca3b}; !- Layer 3

OS:Surface,
  {4088e87f-44ee-4580-af74-9b20a2ab258e}, !- Handle
  Wall1,                                  !- Name
  Wall,                                   !- Surface Type
  {a7f25e6d-c900-4fcd-b7f7-48d1873692ad}, !- Construction Name
  {ef962ccf-956b-48e7-ad6c-ec9d986fee95}, !- Space Name
  Outdoors,                               !- Outside Boundary Condition
  ,                                       !- Outside Boundary Condition Object
  SunExposed,                             !- Sun Exposure
  WindExposed,                            !- Wind Exposure
  ,                                       !- View Factor to Ground
  ,                                       !- Number of Vertices
  -32.2917795683368, 33.2208099683368, 0, !- X,Y,Z Vertex 1 {m}
  -32.2917795683368, 33.2208099683368, 4.8768, !- X,Y,Z Vertex 2 {m}
  -28.0798245683368, 33.2208099683368, 4.8768, !- X,Y,Z Vertex 3 {m}
  -28.0798245683368, 33.2208099683368, 0; !- X,Y,Z Vertex 4 {m}

OS:AdditionalProperties,
  {8c937cfa-3a3d-4cee-9778-b150b3df689e}, !- Handle
  {4088e87f-44ee-4580-af74-9b20a2ab258e}, !- Object Name
  Length,                                 !- Feature Name 1
  Double,                                 !- Feature Data Type 1
  13.81875,                               !- Feature Value 1
  Azimuth,                                !- Feature Name 2
  Integer,                                !- Feature Data Type 2
  0,                                      !- Feature Value 2
  Tilt,                                   !- Feature Name 3
  Double,                                 !- Feature Data Type 3
  90,                                     !- Feature Value 3
  SurfaceType,                            !- Feature Name 4
  String,                                 !- Feature Data Type 4
  Wall;                                   !- Feature Value 4

OS:Material,
  {84e80189-2e04-4792-af4a-e05e65c028f5}, !- Handle
  wood siding,                            !- Name
  Rough,                                  !- Roughness
  0.0254,                                 !- Thickness {m}
  0.1024175,                              !- Conductivity {W/m-K}
  544.68,                                 !- Density {kg/m3}
  1172.36,                                !- Specific Heat {J/kg-K}
  0.9,                                    !- Thermal Absorptance
  0.7,                                    !- Solar Absorptance
  0.7;                                    !- Visible Absorptance

OS:Material,
  {a31287df-ce2c-4901-a84e-b36157eddece}, !- Handle
  osb sheathing 0.5 in.,                  !- Name
  Rough,                                  !- Roughness
  0.0127,                                 !- Thickness {m}
  0.1154577,                              !- Conductivity {W/m-K}
  512.64,                                 !- Density {kg/m3}
  1214.23,                                !- Specific Heat {J/kg-K}
  0.9,                                    !- Thermal Absorptance
  0.7,                                    !- Solar Absorptance
  0.7;                                    !- Visible Absorptance

OS:Material,
  {a632cbbf-0368-4933-9387-df133078ea45}, !- Handle
  wall stud and cavity,                   !- Name
  Rough,                                  !- Roughness
  0.1397,                                 !- Thickness {m}
  0.0929021674204099,                     !- Conductivity {W/m-K}
  139.0536,                               !- Density {kg/m3}
  1170.23755760369,                       !- Specific Heat {J/kg-K}
  0.9,                                    !- Thermal Absorptance
  0.7,                                    !- Solar Absorptance