
OS:Version,
  {74d3d7a8-4f55-421d-acc2-c4294a555a18}, !- Handle
  3.9.0;                                  !- Version Identifier

OS:SimulationControl,
  {791bb929-fd9c-47ef-9664-b72944a67c3d}, !- Handle
  ,                                       !- Do Zone Sizing Calculation
  ,                                       !- Do System Sizing Calculation
  ,                                       !- Do Plant Sizing Calculation
  No;                                     !- Run Simulation for Sizing Periods

OS:Timestep,
  {677da0f7-2b8b-4ac9-8bda-f84281e63946}, !- Handle
  1;                                      !- Number of Timesteps per Hour

OS:ShadowCalculation,
  {dbaa54f1-81c7-4c9e-bab7-181ecb9daf95}, !- Handle
  PolygonClipping,                        !- Shading Calculation Method
  ,                                       !- Shading Calculation Update Frequency Method
  20,                                     !- Shading Calculation Update Frequency
  200,                                    !- Maximum Figures in Shadow Overlap Calculations
  ,                                       !- Polygon Clipping Algorithm
  512,                                    !- Pixel Counting Resolution
  ,                                       !- Sky Diffuse Modeling Algorithm
  No,                                     !- Output External Shading Calculation Results
  No,                                     !- Disable Self-Shading Within Shading Zone Groups
  No;                                     !- Disable Self-Shading From Shading Zone Groups to Other Zones

OS:SurfaceConvectionAlgorithm:Outside,
  {3c85d473-fe71-496a-ac4c-8f012139546b}, !- Handle
  DOE-2;                                  !- Algorithm

OS:SurfaceConvectionAlgorithm:Inside,
  {1d92b61d-3c44-4665-9368-31b907a86fad}, !- Handle
  TARP;                                   !- Algorithm

OS:ZoneCapacitanceMultiplier:ResearchSpecial,
  {1f0ab303-bb23-4333-a455-95a6c69027ea}, !- Handle
  7,                                      !- Temperature Capacity Multiplier
  15,                                     !- Humidity Capacity Multiplier
  ;                                       !- Carbon Dioxide Capacity Multiplier

OS:ConvergenceLimits,
  {c97ecfdc-6714-4ce5-b183-ea0f99f3b36b}, !- Handle
  0;                                      !- Minimum System Timestep {minutes}

OS:RunPeriod,
  {e2692f16-2d81-4fa1-8783-ed2074f14ba9}, !- Handle
  Run Period 1,                           !- Name
  1,                                      !- Begin Month
  1,                                      !- Begin Day of Month
  12,                                     !- End Month
  31,                                     !- End Day of Month
  ,                                       !- Use Weather File Holidays and Special Days
  ,                                       !- Use Weather File Daylight Saving Period
  ,                                       !- Apply Weekend Holiday Rule
  ,                                       !- Use Weather File Rain Indicators
  ,                                       !- Use Weather File Snow Indicators
  ;                                       !- Number of Times Runperiod to be Repeated

OS:PerformancePrecisionTradeoffs,
  {f51ca752-7035-415f-ba9b-adf61466e150}, !- Handle
  ,                                       !- Use Coil Direct Solutions
  CarrollMRT;                             !- Zone Radiant Exchange Algorithm

OS:WeatherFile,
  {11c1e404-73fe-4085-b017-a8e3f5ec8410}, !- Handle
  Buffalo Niagara Intl Ap,                !- City
  NY,                                     !- State Province Region
  USA,                                    !- Country
  TMY3,                                   !- Data Source
  725280,                                 !- WMO Number
  42.93,                                  !- Latitude {deg}
  -78.73,                                 !- Longitude {deg}
  -5,                                     !- Time Zone {hr}
  215,                                    !- Elevation {m}
  /Users/nmoore/github/urbanopt-example-geojson-project/example_project/weather/USA_NY_Buffalo-Greater.Buffalo.Intl.AP.725280_TMY3.epw, !- Url
  6B50E0FF,                               !- Checksum
  ,                                       !- Start Date Actual Year
  Sunday;                                 !- Start Day of Week

OS:YearDescription,
  {3d0c4424-ec4c-4e7e-8875-471575ce8cfa}, !- Handle
  2007,                                   !- Calendar Year
  ,                                       !- Day of Week for Start Day
  ;                                       !- Is Leap Year

OS:Site,
  {ecb83efc-e72b-46df-a610-1f55ad5b046e}, !- Handle
  Buffalo Niagara Intl Ap_NY,             !- Name
  42.93,                                  !- Latitude {deg}
  -78.73,                                 !- Longitude {deg}
  -5,                                     !- Time Zone {hr}
  215,                                    !- Elevation {m}
  Suburbs,                                !- Terrain
  Yes;                                    !- Keep Site Location Information

OS:RunPeriodControl:DaylightSavingTime,
  {e3528fec-d66f-4590-9240-de9e34ed2b36}, !- Handle
  Mar 12,                                 !- Start Date
  Nov 5;                                  !- End Date

OS:Site:GroundTemperature:Shallow,
  {f8a85fee-86c3-4bcd-b1ae-b69866ad22fd}, !- Handle
  4.30207395723828,                       !- January Surface Ground Temperature {C}
  2.29327249652502,                       !- February Surface Ground Temperature {C}
  2.13240047156047,                       !- March Surface Ground Temperature {C}
  3.08567940719286,                       !- April Surface Ground Temperature {C}
  6.91256312497526,                       !- May Surface Ground Temperature {C}
  10.7216195949507,                       !- June Surface Ground Temperature {C}
  14.0238679822574,                       !- July Surface Ground Temperature {C}
  16.1157611184724,                       !- August Surface Ground Temperature {C}
  16.2934789303462,                       !- September Surface Ground Temperature {C}
  14.5920754632847,                       !- October Surface Ground Temperature {C}
  11.374036348653,                        !- November Surface Ground Temperature {C}
  7.68182621661674;                       !- December Surface Ground Temperature {C}

OS:ThermalZone,
  {0c085c28-c342-47d3-8738-2827b7a2066e}, !- Handle
  conditioned space,                      !- Name
  1,                                      !- Multiplier
  ,                                       !- Ceiling Height {m}
  692.06373070848,                        !- Volume {m3}
  ,                                       !- Floor Area {m2}
  ,                                       !- Zone Inside Convection Algorithm
  ,                                       !- Zone Outside Convection Algorithm
  ,                                       !- Zone Conditioning Equipment List Name
  {9b1b3355-1498-435b-9807-bab6bd6e1a61}, !- Zone Air Inlet Port List
  {4bf5b289-dc3c-4c26-b0f5-dfb942257832}, !- Zone Air Exhaust Port List
  {82923073-c614-42cc-9664-ec71fa171052}, !- Zone Air Node Name
  {8c54f41c-7ae0-41ee-bd49-45f48c5c4459}, !- Zone Return Air Port List
  ,                                       !- Primary Daylighting Control Name
  ,                                       !- Fraction of Zone Controlled by Primary Daylighting Control
  ,                                       !- Secondary Daylighting Control Name
  ,                                       !- Fraction of Zone Controlled by Secondary Daylighting Control
  ,                                       !- Illuminance Map Name
  ,                                       !- Group Rendering Name
  {3b0b230f-2a4d-43a9-b556-89fa3170a3ce}, !- Thermostat Name
  No;                                     !- Use Ideal Air Loads

OS:Node,
  {29091465-ab4f-4f7f-92ae-1e3a62be16c1}, !- Handle
  Node 1,                                 !- Name
  {82923073-c614-42cc-9664-ec71fa171052}, !- Inlet Port
  ;                                       !- Outlet Port

OS:Connection,
  {82923073-c614-42cc-9664-ec71fa171052}, !- Handle
  {0c085c28-c342-47d3-8738-2827b7a2066e}, !- Source Object
  11,                                     !- Outlet Port
  {29091465-ab4f-4f7f-92ae-1e3a62be16c1}, !- Target Object
  2;                                      !- Inlet Port

OS:PortList,
  {9b1b3355-1498-435b-9807-bab6bd6e1a61}, !- Handle
  {0c085c28-c342-47d3-8738-2827b7a2066e}, !- HVAC Component
  {f3819c31-762b-4936-b682-e116043b1891}, !- Port 1
  {810b4e1f-a7c8-4328-9077-ee3e1a774ba3}; !- Port 2

OS:PortList,
  {4bf5b289-dc3c-4c26-b0f5-dfb942257832}, !- Handle
  {0c085c28-c342-47d3-8738-2827b7a2066e}; !- HVAC Component

OS:PortList,
  {8c54f41c-7ae0-41ee-bd49-45f48c5c4459}, !- Handle
  {0c085c28-c342-47d3-8738-2827b7a2066e}, !- HVAC Component
  {4ee7d707-e299-4ce0-95d4-08e56379476e}, !- Port 1
  {52ed4602-5489-4fd6-b019-4f3f55e98607}; !- Port 2

OS:Sizing:Zone,
  {991e2de2-06fc-471f-b403-512ab59ae812}, !- Handle
  {0c085c28-c342-47d3-8738-2827b7a2066e}, !- Zone or ZoneList Name
  SupplyAirTemperature,                   !- Zone Cooling Design Supply Air Temperature Input Method
  14,                                     !- Zone Cooling Design Supply Air Temperature {C}
  11.11,                                  !- Zone Cooling Design Supply Air Temperature Difference {deltaC}
  SupplyAirTemperature,                   !- Zone Heating Design Supply Air Temperature Input Method
  40,                                     !- Zone Heating Design Supply Air Temperature {C}
  11.11,                                  !- Zone Heating Design Supply Air Temperature Difference {deltaC}
  0.0085,                                 !- Zone Cooling Design Supply Air Humidity Ratio {kg-H2O/kg-air}
  0.008,                                  !- Zone Heating Design Supply Air Humidity Ratio {kg-H2O/kg-air}
  ,                                       !- Zone Heating Sizing Factor
  ,                                       !- Zone Cooling Sizing Factor
  DesignDay,                              !- Cooling Design Air Flow Method
  ,                                       !- Cooling Design Air Flow Rate {m3/s}
  ,                                       !- Cooling Minimum Air Flow per Zone Floor Area {m3/s-m2}
  ,                                       !- Cooling Minimum Air Flow {m3/s}
  ,                                       !- Cooling Minimum Air Flow Fraction
  DesignDay,                              !- Heating Design Air Flow Method
  ,                                       !- Heating Design Air Flow Rate {m3/s}
  ,                                       !- Heating Maximum Air Flow per Zone Floor Area {m3/s-m2}
  ,                                       !- Heating Maximum Air Flow {m3/s}
  ,                                       !- Heating Maximum Air Flow Fraction
  No,                                     !- Account for Dedicated Outdoor Air System
  NeutralSupplyAir,                       !- Dedicated Outdoor Air System Control Strategy
  autosize,                               !- Dedicated Outdoor Air Low Setpoint Temperature for Design {C}
  autosize,                               !- Dedicated Outdoor Air High Setpoint Temperature for Design {C}
  Sensible Load Only No Latent Load,      !- Zone Load Sizing Method
  HumidityRatioDifference,                !- Zone Latent Cooling Design Supply Air Humidity Ratio Input Method
  ,                                       !- Zone Dehumidification Design Supply Air Humidity Ratio {kgWater/kgDryAir}
  0.005,                                  !- Zone Cooling Design Supply Air Humidity Ratio Difference {kgWater/kgDryAir}
  HumidityRatioDifference,                !- Zone Latent Heating Design Supply Air Humidity Ratio Input Method
  ,                                       !- Zone Humidification Design Supply Air Humidity Ratio {kgWater/kgDryAir}
  0.005,                                  !- Zone Humidification Design Supply Air Humidity Ratio Difference {kgWater/kgDryAir}
  ,                                       !- Zone Humidistat Dehumidification Set Point Schedule Name
  ,                                       !- Zone Humidistat Humidification Set Point Schedule Name
  ,                                       !- Design Zone Air Distribution Effectiveness in Cooling Mode
  ,                                       !- Design Zone Air Distribution Effectiveness in Heating Mode
  ,                                       !- Design Zone Secondary Recirculation Fraction {dimensionless}
  ,                                       !- Design Minimum Zone Ventilation Efficiency {dimensionless}
  Coincident;                             !- Sizing Option

OS:ZoneHVAC:EquipmentList,
  {951abf76-ce5e-4956-a8e7-ec112b95bc62}, !- Handle
  Zone HVAC Equipment List 1,             !- Name
  {0c085c28-c342-47d3-8738-2827b7a2066e}, !- Thermal Zone
  ,                                       !- Load Distribution Scheme
  {e3bcd6e6-150c-46b6-8605-60655909cad7}, !- Zone Equipment 1
  1,                                      !- Zone Equipment Cooling Sequence 1
  1,                                      !- Zone Equipment Heating or No-Load Sequence 1
  {eabed4a8-2ded-43bd-a046-15526536ef88}, !- Zone Equipment Sequential Cooling Fraction Schedule Name 1
  {f45c33d8-347b-42dc-8461-d091315d57de}, !- Zone Equipment Sequential Heating Fraction Schedule Name 1
  {5590ae52-10f8-4668-a081-014ccebe2eaf}, !- Zone Equipment 2
  2,                                      !- Zone Equipment Cooling Sequence 2
  2,                                      !- Zone Equipment Heating or No-Load Sequence 2
  {8abd6b21-cb8f-44ee-beec-0972958f590b}, !- Zone Equipment Sequential Cooling Fraction Schedule Name 2
  {acf4ac53-5baa-4cdb-99c0-2ef65e6caf98}; !- Zone Equipment Sequential Heating Fraction Schedule Name 2

OS:AdditionalProperties,
  {eae73bc5-5c87-4940-96b2-6dc4b0546925}, !- Handle
  {0c085c28-c342-47d3-8738-2827b7a2066e}, !- Object Name
  ObjectType,                             !- Feature Name 1
  String,                                 !- Feature Data Type 1
  conditioned space;                      !- Feature Value 1

OS:Space,
  {3b0cbb37-ea99-4aa2-84f1-aca8a7bb7575}, !- Handle
  conditioned space 1,                    !- Name
  ,                                       !- Space Type Name
  ,                                       !- Default Construction Set Name
  ,                                       !- Default Schedule Set Name
  ,                                       !- Direction of Relative North {deg}
  ,                                       !- X Origin {m}
  ,                                       !- Y Origin {m}
  ,                                       !- Z Origin {m}
  ,                                       !- Building Story Name
  {0c085c28-c342-47d3-8738-2827b7a2066e}, !- Thermal Zone Name
  ,                                       !- Part of Total Floor Area
  ,                                       !- Design Specification Outdoor Air Object Name
  ,                                       !- Building Unit Name
  692.06373070848;                        !- Volume {m3}

OS:Schedule:Ruleset,
  {31c26b41-b7d6-4ab0-bf0c-058c25c46dad}, !- Handle
  heating setpoint,                       !- Name
  {65d8fa3f-c8c9-4a3e-9fc7-2edd15182355}, !- Schedule Type Limits Name
  {f9d2dabc-774b-4462-945d-04d74f21491f}; !- Default Day Schedule Name

OS:Schedule:Day,
  {f9d2dabc-774b-4462-945d-04d74f21491f}, !- Handle
  heating setpoint default day,           !- Name
  {65d8fa3f-c8c9-4a3e-9fc7-2edd15182355}, !- Schedule Type Limits Name
  ,                                       !- Interpolate to Timestep
  24,                                     !- Hour 1
  0,                                      !- Minute 1
  0;                                      !- Value Until Time 1

OS:Schedule:Rule,
  {a7aa349e-300f-43af-8a3b-740de5311006}, !- Handle
  heating setpoint allday rule,           !- Name
  {31c26b41-b7d6-4ab0-bf0c-058c25c46dad}, !- Schedule Ruleset Name
  0,                                      !- Rule Order
  {83e3b1cd-6870-4190-a3d8-8c61808b882d}, !- Day Schedule Name
  Yes,                                    !- Apply Sunday
  Yes,                                    !- Apply Monday
  Yes,                                    !- Apply Tuesday
  Yes,                                    !- Apply Wednesday
  Yes,                                    !- Apply Thursday
  Yes,                                    !- Apply Friday
  Yes,                                    !- Apply Saturday
  DateRange,                              !- Date Specification Type
  1,                                      !- Start Month
  1,                                      !- Start Day
  12,                                     !- End Month
  31;                                     !- End Day

OS:Schedule:Day,
  {83e3b1cd-6870-4190-a3d8-8c61808b882d}, !- Handle
  heating setpoint day,                   !- Name
  {65d8fa3f-c8c9-4a3e-9fc7-2edd15182355}, !- Schedule Type Limits Name
  ,                                       !- Interpolate to Timestep
  24,                                     !- Hour 1
  0,                                      !- Minute 1
  20;                                     !- Value Until Time 1

OS:Schedule:Ruleset,
  {46754fc1-f693-497c-ac49-e49eb18efdc5}, !- Handle
  cooling setpoint,                       !- Name
  {65d8fa3f-c8c9-4a3e-9fc7-2edd15182355}, !- Schedule Type Limits Name
  {598f533e-c2b5-4b1b-8135-db78f9d6ab97}; !- Default Day Schedule Name

OS:Schedule:Day,
  {598f533e-c2b5-4b1b-8135-db78f9d6ab97}, !- Handle
  cooling setpoint default day,           !- Name
  {65d8fa3f-c8c9-4a3e-9fc7-2edd15182355}, !- Schedule Type Limits Name
  ,                                       !- Interpolate to Timestep
  24,                                     !- Hour 1
  0,                                      !- Minute 1
  0;                                      !- Value Until Time 1

OS:Schedule:Rule,
  {58286a47-8d70-41a5-9704-f8e5e70629a6}, !- Handle
  cooling setpoint allday rule,           !- Name
  {46754fc1-f693-497c-ac49-e49eb18efdc5}, !- Schedule Ruleset Name
  0,                                      !- Rule Order
  {11358ba4-2231-48e1-a9dc-810820546c0d}, !- Day Schedule Name
  Yes,                                    !- Apply Sunday
  Yes,                                    !- Apply Monday
  Yes,                                    !- Apply Tuesday
  Yes,                                    !- Apply Wednesday
  Yes,                                    !- Apply Thursday
  Yes,                                    !- Apply Friday
  Yes,                                    !- Apply Saturday
  DateRange,                              !- Date Specification Type
  1,                                      !- Start Month
  1,                                      !- Start Day
  12,                                     !- End Month
  31;                                     !- End Day

OS:Schedule:Day,
  {11358ba4-2231-48e1-a9dc-810820546c0d}, !- Handle
  cooling setpoint day,                   !- Name
  {65d8fa3f-c8c9-4a3e-9fc7-2edd15182355}, !- Schedule Type Limits Name
  ,                                       !- Interpolate to Timestep
  24,                                     !- Hour 1
  0,                                      !- Minute 1
  25.5555555555556;                       !- Value Until Time 1

OS:ThermostatSetpoint:DualSetpoint,
  {3b0b230f-2a4d-43a9-b556-89fa3170a3ce}, !- Handle
  conditioned space temperature setpoint, !- Name
  {31c26b41-b7d6-4ab0-bf0c-058c25c46dad}, !- Heating Setpoint Temperature Schedule Name
  {46754fc1-f693-497c-ac49-e49eb18efdc5}, !- Cooling Setpoint Temperature Schedule Name
  0;                                      !- Temperature Difference Between Cutout And Setpoint {deltaC}

OS:ScheduleTypeLimits,
  {65d8fa3f-c8c9-4a3e-9fc7-2edd15182355}, !- Handle
  Temperature,                            !- Name
  ,                                       !- Lower Limit Value
  ,                                       !- Upper Limit Value
  Continuous,                             !- Numeric Type
  Temperature;                            !- Unit Type

OS:Surface,
  {4d5908ad-0801-4e27-86c6-e62c5af59a01}, !- Handle
  Roof1,                                  !- Name
  RoofCeiling,                            !- Surface Type
  {1fa9e620-c4e1-4745-8bc1-b7b4dfad7b92}, !- Construction Name
  {fb591a14-2dd6-44a0-8685-bfa9396f0118}, !- Space Name
  Outdoors,                               !- Outside Boundary Condition
  ,                                       !- Outside Boundary Condition Object
  SunExposed,                             !- Sun Exposure
  WindExposed,                            !- Wind Exposure
  ,                                       !- View Factor to Ground
  ,                                       !- Number of Vertices
  -26.9347048849634, 58.0557891618865, 2.4384, !- X,Y,Z Vertex 1 {m}
  -26.9347048849634, 46.7895631136661, 8.0715130241102, !- X,Y,Z Vertex 2 {m}
  -14.3386812381136, 46.7895631136661, 8.0715130241102, !- X,Y,Z Vertex 3 {m}
  -14.3386812381136, 58.0557891618865, 2.4384; !- X,Y,Z Vertex 4 {m}

OS:AdditionalProperties,
  {0547829a-47ab-41c2-8d79-d7f25b394e54}, !- Handle
  {4d5908ad-0801-4e27-86c6-e62c5af59a01}, !- Object Name
  Length,                                 !- Feature Name 1
  Double,                                 !- Feature Data Type 1
  41.325536899113608,                     !- Feature Value 1
  Width,                                  !- Feature Name 2
  Double,                                 !- Feature Data Type 2
  41.325536899113601,                     !- Feature Value 2
  Azimuth,                                !- Feature Name 3
  Integer,                                !- Feature Data Type 3
  0,                                      !- Feature Value 3
  Tilt,                                   !- Feature Name 4
  Double,                                 !- Feature Data Type 4
  0.5,                                    !- Feature Value 4
  SurfaceType,                            !- Feature Name 5
  String,                                 !- Feature Data Type 5
  Roof;                                   !- Feature Value 5

OS:ThermalZone,
  {8c1964cc-0e53-4c8d-93b5-ac74c86d7211}, !- Handle
  attic - vented,                         !- Name
  1,                                      !- Multiplier
  ,                                       !- Ceiling Height {m}
  356.389957095237,                       !- Volume {m3}
  ,                                       !- Floor Area {m2}
  ,                                       !- Zone Inside Convection Algorithm
  ,                                       !- Zone Outside Convection Algorithm
  ,                                       !- Zone Conditioning Equipment List Name
  {72b083c8-8f4a-40ea-b037-4c749ce1db9a}, !- Zone Air Inlet Port List
  {f10a65e6-e9e0-43b7-9bd6-ef34628b9118}, !- Zone Air Exhaust Port List
  {5c67f4a0-4f1c-4168-ba66-7f3bf05de10a}, !- Zone Air Node Name
  {71dd300c-3194-477f-8a06-21493d3f0809}, !- Zone Return Air Port List
  ,                                       !- Primary Daylighting Control Name
  ,                                       !- Fraction of Zone Controlled by Primary Daylighting Control
  ,                                       !- Secondary Daylighting Control Name
  ,                                       !- Fraction of Zone Controlled by Secondary Daylighting Control
  ,                                       !- Illuminance Map Name
  ,                                       !- Group Rendering Name
  ,                                       !- Thermostat Name
  No;                                     !- Use Ideal Air Loads

OS:Node,
  {3da58e8d-867b-4a29-9e64-c28fdbe251ac}, !- Handle
  Node 2,                                 !- Name
  {5c67f4a0-4f1c-4168-ba66-7f3bf05de10a}, !- Inlet Port
  ;                                       !- Outlet Port

OS:Connection,
  {5c67f4a0-4f1c-4168-ba66-7f3bf05de10a}, !- Handle
  {8c1964cc-0e53-4c8d-93b5-ac74c86d7211}, !- Source Object
  11,                                     !- Outlet Port
  {3da58e8d-867b-4a29-9e64-c28fdbe251ac}, !- Target Object
  2;                                      !- Inlet Port

OS:PortList,
  {72b083c8-8f4a-40ea-b037-4c749ce1db9a}, !- Handle
  {8c1964cc-0e53-4c8d-93b5-ac74c86d7211}; !- HVAC Component

OS:PortList,
  {f10a65e6-e9e0-43b7-9bd6-ef34628b9118}, !- Handle
  {8c1964cc-0e53-4c8d-93b5-ac74c86d7211}; !- HVAC Component

OS:PortList,
  {71dd300c-3194-477f-8a06-21493d3f0809}, !- Handle
  {8c1964cc-0e53-4c8d-93b5-ac74c86d7211}; !- HVAC Component

OS:Sizing:Zone,
  {99d97757-2982-4223-89c4-5f914fe4203c}, !- Handle
  {8c1964cc-0e53-4c8d-93b5-ac74c86d7211}, !- Zone or ZoneList Name
  SupplyAirTemperature,                   !- Zone Cooling Design Supply Air Temperature Input Method
  14,                                     !- Zone Cooling Design Supply Air Temperature {C}
  11.11,                                  !- Zone Cooling Design Supply Air Temperature Difference {deltaC}
  SupplyAirTemperature,                   !- Zone Heating Design Supply Air Temperature Input Method
  40,                                     !- Zone Heating Design Supply Air Temperature {C}
  11.11,                                  !- Zone Heating Design Supply Air Temperature Difference {deltaC}
  0.0085,                                 !- Zone Cooling Design Supply Air Humidity Ratio {kg-H2O/kg-air}
  0.008,                                  !- Zone Heating Design Supply Air Humidity Ratio {kg-H2O/kg-air}
  ,                                       !- Zone Heating Sizing Factor
  ,                                       !- Zone Cooling Sizing Factor
  DesignDay,                              !- Cooling Design Air Flow Method
  ,                                       !- Cooling Design Air Flow Rate {m3/s}
  ,                                       !- Cooling Minimum Air Flow per Zone Floor Area {m3/s-m2}
  ,                                       !- Cooling Minimum Air Flow {m3/s}
  ,                                       !- Cooling Minimum Air Flow Fraction
  DesignDay,                              !- Heating Design Air Flow Method
  ,                                       !- Heating Design Air Flow Rate {m3/s}
  ,                                       !- Heating Maximum Air Flow per Zone Floor Area {m3/s-m2}
  ,                                       !- Heating Maximum Air Flow {m3/s}
  ,                                       !- Heating Maximum Air Flow Fraction
  No,                                     !- Account for Dedicated Outdoor Air System
  NeutralSupplyAir,                       !- Dedicated Outdoor Air System Control Strategy
  autosize,                               !- Dedicated Outdoor Air Low Setpoint Temperature for Design {C}
  autosize,                               !- Dedicated Outdoor Air High Setpoint Temperature for Design {C}
  Sensible Load Only No Latent Load,      !- Zone Load Sizing Method
  HumidityRatioDifference,                !- Zone Latent Cooling Design Supply Air Humidity Ratio Input Method
  ,                                       !- Zone Dehumidification Design Supply Air Humidity Ratio {kgWater/kgDryAir}
  0.005,                                  !- Zone Cooling Design Supply Air Humidity Ratio Difference {kgWater/kgDryAir}
  HumidityRatioDifference,                !- Zone Latent Heating Design Supply Air Humidity Ratio Input Method
  ,                                       !- Zone Humidification Design Supply Air Humidity Ratio {kgWater/kgDryAir}
  0.005,                                  !- Zone Humidification Design Supply Air Humidity Ratio Difference {kgWater/kgDryAir}
  ,                                       !- Zone Humidistat Dehumidification Set Point Schedule Name
  ,                                       !- Zone Humidistat Humidification Set Point Schedule Name
  ,                                       !- Design Zone Air Distribution Effectiveness in Cooling Mode
  ,                                       !- Design Zone Air Distribution Effectiveness in Heating Mode
  ,                                       !- Design Zone Secondary Recirculation Fraction {dimensionless}
  ,                                       !- Design Minimum Zone Ventilation Efficiency {dimensionless}
  Coincident;                             !- Sizing Option

OS:ZoneHVAC:EquipmentList,
  {affb9e04-b7e0-46f9-acf7-0a16ee9eca74}, !- Handle
  Zone HVAC Equipment List 2,             !- Name
  {8c1964cc-0e53-4c8d-93b5-ac74c86d7211}; !- Thermal Zone

OS:AdditionalProperties,
  {6d23de6c-ef21-48ea-8c07-d72033c89222}, !- Handle
  {8c1964cc-0e53-4c8d-93b5-ac74c86d7211}, !- Object Name
  ObjectType,                             !- Feature Name 1
  String,                                 !- Feature Data Type 1
  attic - vented;                         !- Feature Value 1

OS:Space,
  {fb591a14-2dd6-44a0-8685-bfa9396f0118}, !- Handle
  attic - vented 1,                       !- Name
  ,                                       !- Space Type Name
  ,                                       !- Default Construction Set Name
  ,                                       !- Default Schedule Set Name
  ,                                       !- Direction of Relative North {deg}
  ,                                       !- X Origin {m}
  ,                                       !- Y Origin {m}
  ,                                       !- Z Origin {m}
  ,                                       !- Building Story Name
  {8c1964cc-0e53-4c8d-93b5-ac74c86d7211}, !- Thermal Zone Name
  ,                                       !- Part of Total Floor Area
  ,                                       !- Design Specification Outdoor Air Object Name
  ,                                       !- Building Unit Name
  356.389957095237;                       !- Volume {m3}

OS:Material,