
OS:Version,
  {19ec0f65-f487-49b8-b3a5-b9c6bcd1a3f8}, !- Handle
  3.10.0;                                 !- Version Identifier

OS:SimulationControl,
  {e9b6ba80-ddb4-44da-8e69-136e8d8d6df3}, !- Handle
  ,                                       !- Do Zone Sizing Calculation
  ,                                       !- Do System Sizing Calculation
  ,                                       !- Do Plant Sizing Calculation
  No;                                     !- Run Simulation for Sizing Periods

OS:Timestep,
  {02dbd9f2-ca78-4fc8-a26c-378c11bfc7de}, !- Handle
  1;                                      !- Number of Timesteps per Hour

OS:ShadowCalculation,
  {24a46a27-1638-4f5a-9bf2-ecf5928ecf5e}, !- Handle
  PolygonClipping,                        !- Shading Calculation Method
  ,                                       !- Shading Calculation Update Frequency Method
  20,                                     !- Shading Calculation Update Frequency
  200,                                    !- Maximum Figures in Shadow Overlap Calculations
  ,                                       !- Polygon Clipping Algorithm
  512,                                    !- Pixel Counting Resolution
  ,                                       !- Sky Diffuse Modeling Algorithm
  No,                                     !- Output External Shading Calculation Results
  No,                                     !- Disable Self-Shading Within Shading Zone Groups
  No;                                     !- Disable Self-Shading From Shading Zone Groups to Other Zones

OS:SurfaceConvectionAlgorithm:Outside,
  {9bc86305-b02c-4002-8680-4975357a7903}, !- Handle
  DOE-2;                                  !- Algorithm

OS:SurfaceConvectionAlgorithm:Inside,
  {d7e0f472-f700-441a-8e0a-275db8cf1109}, !- Handle
  TARP;                                   !- Algorithm

OS:ZoneCapacitanceMultiplier:ResearchSpecial,
  {fa36c538-58c0-4353-9fb4-d2e287b1ed7b}, !- Handle
  7,                                      !- Temperature Capacity Multiplier
  15,                                     !- Humidity Capacity Multiplier
  ;                                       !- Carbon Dioxide Capacity Multiplier

OS:ConvergenceLimits,
  {aa5abb51-6f07-4d47-88d3-48ae8018ae8d}, !- Handle
  0;                                      !- Minimum System Timestep {minutes}

OS:RunPeriod,
  {3a147ce7-ac0b-4831-adf5-5b70d0e6e80e}, !- Handle
  Run Period 1,                           !- Name
  1,                                      !- Begin Month
  1,                                      !- Begin Day of Month
  12,                                     !- End Month
  31,                                     !- End Day of Month
  ,                                       !- Use Weather File Holidays and Special Days
  ,                                       !- Use Weather File Daylight Saving Period
  ,                                       !- Apply Weekend Holiday Rule
  ,                                       !- Use Weather File Rain Indicators
  ,                                       !- Use Weather File Snow Indicators
  ;                                       !- Number of Times Runperiod to be Repeated

OS:PerformancePrecisionTradeoffs,
  {5b96c452-7c04-4b6a-bf12-ba637a7485a4}, !- Handle
  ,                                       !- Use Coil Direct Solutions
  CarrollMRT;                             !- Zone Radiant Exchange Algorithm

OS:WeatherFile,
  {1f8bb4ec-0e9f-4393-aec2-56859d122cc2}, !- Handle
  Buffalo Niagara Intl Ap,                !- City
  NY,                                     !- State Province Region
  USA,                                    !- Country
  TMY3,                                   !- Data Source
  725280,                                 !- WMO Number
  42.93,                                  !- Latitude {deg}
  -78.73,                                 !- Longitude {deg}
  -5,                                     !- Time Zone {hr}
  215,                                    !- Elevation {m}
  /Users/nmoore/github/urbanopt-example-geojson-project/example_project/weather/USA_NY_Buffalo-Greater.Buffalo.Intl.AP.725280_TMY3.epw, !- Url
  6B50E0FF,                               !- Checksum
  ,                                       !- Start Date Actual Year
  Sunday;                                 !- Start Day of Week

OS:YearDescription,
  {0207589f-9c7d-4d2e-b4ec-ddc9e3c984d2}, !- Handle
  2007,                                   !- Calendar Year
  ,                                       !- Day of Week for Start Day
  ;                                       !- Is Leap Year

OS:Site,
  {3e518745-22db-4e9b-8bda-c25492eab99f}, !- Handle
  Buffalo Niagara Intl Ap_NY,             !- Name
  42.93,                                  !- Latitude {deg}
  -78.73,                                 !- Longitude {deg}
  -5,                                     !- Time Zone {hr}
  215,                                    !- Elevation {m}
  Suburbs,                                !- Terrain
  Yes;                                    !- Keep Site Location Information

OS:RunPeriodControl:DaylightSavingTime,
  {598f2f46-5533-4a5d-8529-11beefa6f92e}, !- Handle
  Mar 12,                                 !- Start Date
  Nov 5;                                  !- End Date

OS:Site:GroundTemperature:Shallow,
  {67054e90-9323-4127-80f3-781d0e99d8e2}, !- Handle
  4.30207395723828,                       !- January Surface Ground Temperature {C}
  2.29327249652502,                       !- February Surface Ground Temperature {C}
  2.13240047156047,                       !- March Surface Ground Temperature {C}
  3.08567940719286,                       !- April Surface Ground Temperature {C}
  6.91256312497526,                       !- May Surface Ground Temperature {C}
  10.7216195949507,                       !- June Surface Ground Temperature {C}
  14.0238679822574,                       !- July Surface Ground Temperature {C}
  16.1157611184724,                       !- August Surface Ground Temperature {C}
  16.2934789303462,                       !- September Surface Ground Temperature {C}
  14.5920754632847,                       !- October Surface Ground Temperature {C}
  11.374036348653,                        !- November Surface Ground Temperature {C}
  7.68182621661674;                       !- December Surface Ground Temperature {C}

OS:ThermalZone,
  {e72a5143-58d5-46cd-8db6-1579049c7bf9}, !- Handle
  conditioned space,                      !- Name
  1,                                      !- Multiplier
  ,                                       !- Ceiling Height {m}
  692.06373070848,                        !- Volume {m3}
  ,                                       !- Floor Area {m2}
  ,                                       !- Zone Inside Convection Algorithm
  ,                                       !- Zone Outside Convection Algorithm
  ,                                       !- Zone Conditioning Equipment List Name
  {7f142fb1-7190-4f04-b9cb-aa16ec114d27}, !- Zone Air Inlet Port List
  {293075fb-29a6-48aa-b5d0-94c760510f7e}, !- Zone Air Exhaust Port List
  {47451af6-5b39-4cdf-903b-d129eb8747dd}, !- Zone Air Node Name
  {fc253fc3-a859-4cdf-9d7b-f6aa6b2122a1}, !- Zone Return Air Port List
  ,                                       !- Primary Daylighting Control Name
  ,                                       !- Fraction of Zone Controlled by Primary Daylighting Control
  ,                                       !- Secondary Daylighting Control Name
  ,                                       !- Fraction of Zone Controlled by Secondary Daylighting Control
  ,                                       !- Illuminance Map Name
  ,                                       !- Group Rendering Name
  {35d199fc-c450-4e2d-b521-fe30f5fa56dc}, !- Thermostat Name
  No;                                     !- Use Ideal Air Loads

OS:Node,
  {dfb5555b-4086-4bc5-b8e5-55db39b315bd}, !- Handle
  Node 1,                                 !- Name
  {47451af6-5b39-4cdf-903b-d129eb8747dd}, !- Inlet Port
  ;                                       !- Outlet Port

OS:Connection,
  {47451af6-5b39-4cdf-903b-d129eb8747dd}, !- Handle
  {e72a5143-58d5-46cd-8db6-1579049c7bf9}, !- Source Object
  11,                                     !- Outlet Port
  {dfb5555b-4086-4bc5-b8e5-55db39b315bd}, !- Target Object
  2;                                      !- Inlet Port

OS:PortList,
  {7f142fb1-7190-4f04-b9cb-aa16ec114d27}, !- Handle
  {e72a5143-58d5-46cd-8db6-1579049c7bf9}, !- HVAC Component
  {20cfc118-c91e-497a-af54-7c9d78390ca9}, !- Port 1
  {a8f02c80-2a7b-4a33-8c25-75769b764182}; !- Port 2

OS:PortList,
  {293075fb-29a6-48aa-b5d0-94c760510f7e}, !- Handle
  {e72a5143-58d5-46cd-8db6-1579049c7bf9}; !- HVAC Component

OS:PortList,
  {fc253fc3-a859-4cdf-9d7b-f6aa6b2122a1}, !- Handle
  {e72a5143-58d5-46cd-8db6-1579049c7bf9}, !- HVAC Component
  {6cdc830b-93f3-4514-9c82-15b1e1b2fdfc}, !- Port 1
  {3dff5514-ad71-409f-a4d7-42b948fc159c}; !- Port 2

OS:Sizing:Zone,
  {7ed53e26-9aa5-4560-8f73-605b196f4c5d}, !- Handle
  {e72a5143-58d5-46cd-8db6-1579049c7bf9}, !- Zone or ZoneList Name
  SupplyAirTemperature,                   !- Zone Cooling Design Supply Air Temperature Input Method
  14,                                     !- Zone Cooling Design Supply Air Temperature {C}
  11.11,                                  !- Zone Cooling Design Supply Air Temperature Difference {deltaC}
  SupplyAirTemperature,                   !- Zone Heating Design Supply Air Temperature Input Method
  40,                                     !- Zone Heating Design Supply Air Temperature {C}
  11.11,                                  !- Zone Heating Design Supply Air Temperature Difference {deltaC}
  0.0085,                                 !- Zone Cooling Design Supply Air Humidity Ratio {kg-H2O/kg-air}
  0.008,                                  !- Zone Heating Design Supply Air Humidity Ratio {kg-H2O/kg-air}
  ,                                       !- Zone Heating Sizing Factor
  ,                                       !- Zone Cooling Sizing Factor
  DesignDay,                              !- Cooling Design Air Flow Method
  ,                                       !- Cooling Design Air Flow Rate {m3/s}
  ,                                       !- Cooling Minimum Air Flow per Zone Floor Area {m3/s-m2}
  ,                                       !- Cooling Minimum Air Flow {m3/s}
  ,                                       !- Cooling Minimum Air Flow Fraction
  DesignDay,                              !- Heating Design Air Flow Method
  ,                                       !- Heating Design Air Flow Rate {m3/s}
  ,                                       !- Heating Maximum Air Flow per Zone Floor Area {m3/s-m2}
  ,                                       !- Heating Maximum Air Flow {m3/s}
  ,                                       !- Heating Maximum Air Flow Fraction
  No,                                     !- Account for Dedicated Outdoor Air System
  NeutralSupplyAir,                       !- Dedicated Outdoor Air System Control Strategy
  autosize,                               !- Dedicated Outdoor Air Low Setpoint Temperature for Design {C}
  autosize,                               !- Dedicated Outdoor Air High Setpoint Temperature for Design {C}
  Sensible Load Only No Latent Load,      !- Zone Load Sizing Method
  HumidityRatioDifference,                !- Zone Latent Cooling Design Supply Air Humidity Ratio Input Method
  ,                                       !- Zone Dehumidification Design Supply Air Humidity Ratio {kgWater/kgDryAir}
  0.005,                                  !- Zone Cooling Design Supply Air Humidity Ratio Difference {kgWater/kgDryAir}
  HumidityRatioDifference,                !- Zone Latent Heating Design Supply Air Humidity Ratio Input Method
  ,                                       !- Zone Humidification Design Supply Air Humidity Ratio {kgWater/kgDryAir}
  0.005,                                  !- Zone Humidification Design Supply Air Humidity Ratio Difference {kgWater/kgDryAir}
  ,                                       !- Zone Humidistat Dehumidification Set Point Schedule Name
  ,                                       !- Zone Humidistat Humidification Set Point Schedule Name
  ,                                       !- Design Zone Air Distribution Effectiveness in Cooling Mode
  ,                                       !- Design Zone Air Distribution Effectiveness in Heating Mode
  ,                                       !- Design Zone Secondary Recirculation Fraction {dimensionless}
  ,                                       !- Design Minimum Zone Ventilation Efficiency {dimensionless}
  Coincident;                             !- Sizing Option

OS:ZoneHVAC:EquipmentList,
  {97c170ee-a7a3-4cdd-b4e4-61236492ad0c}, !- Handle
  Zone HVAC Equipment List 1,             !- Name
  {e72a5143-58d5-46cd-8db6-1579049c7bf9}, !- Thermal Zone
  ,                                       !- Load Distribution Scheme
  {0f051963-b23e-433f-9450-2240919a6deb}, !- Zone Equipment 1
  1,                                      !- Zone Equipment Cooling Sequence 1
  1,                                      !- Zone Equipment Heating or No-Load Sequence 1
  {3573094e-c5d2-4607-869f-80e639d403dc}, !- Zone Equipment Sequential Cooling Fraction Schedule Name 1
  {daf861dc-678c-4781-a655-aa237b6af7eb}, !- Zone Equipment Sequential Heating Fraction Schedule Name 1
  {4afbb6c6-dae5-4923-a0d0-c2900cf7dc3a}, !- Zone Equipment 2
  2,                                      !- Zone Equipment Cooling Sequence 2
  2,                                      !- Zone Equipment Heating or No-Load Sequence 2
  {6976c002-a303-4d39-a97b-3801259c9e40}, !- Zone Equipment Sequential Cooling Fraction Schedule Name 2
  {4b742211-b401-4568-bed9-2a2ae165d5f3}; !- Zone Equipment Sequential Heating Fraction Schedule Name 2

OS:AdditionalProperties,
  {9c68bd48-999a-42a0-9dee-512c4745b340}, !- Handle
  {e72a5143-58d5-46cd-8db6-1579049c7bf9}, !- Object Name
  ObjectType,                             !- Feature Name 1
  String,                                 !- Feature Data Type 1
  conditioned space;                      !- Feature Value 1

OS:Space,
  {af5820d7-4a27-4a9f-92ba-46e4a11e9d84}, !- Handle
  conditioned space 1,                    !- Name
  ,                                       !- Space Type Name
  ,                                       !- Default Construction Set Name
  ,                                       !- Default Schedule Set Name
  ,                                       !- Direction of Relative North {deg}
  ,                                       !- X Origin {m}
  ,                                       !- Y Origin {m}
  ,                                       !- Z Origin {m}
  ,                                       !- Building Story Name
  {e72a5143-58d5-46cd-8db6-1579049c7bf9}, !- Thermal Zone Name
  ,                                       !- Part of Total Floor Area
  ,                                       !- Design Specification Outdoor Air Object Name
  ,                                       !- Building Unit Name
  692.06373070848;                        !- Volume {m3}

OS:Schedule:Ruleset,
  {53b09a2f-0be8-420f-9915-8f851db40b7e}, !- Handle
  heating setpoint,                       !- Name
  {4d7c8c65-090b-488c-bf70-f1cb4757c707}, !- Schedule Type Limits Name
  {fd33538b-c848-40aa-b4db-b538a7da0be2}; !- Default Day Schedule Name

OS:Schedule:Day,
  {fd33538b-c848-40aa-b4db-b538a7da0be2}, !- Handle
  heating setpoint default day,           !- Name
  {4d7c8c65-090b-488c-bf70-f1cb4757c707}, !- Schedule Type Limits Name
  ,                                       !- Interpolate to Timestep
  24,                                     !- Hour 1
  0,                                      !- Minute 1
  0;                                      !- Value Until Time 1

OS:Schedule:Rule,
  {f6a65d75-93c5-435f-b092-10e86690d378}, !- Handle
  heating setpoint allday rule,           !- Name
  {53b09a2f-0be8-420f-9915-8f851db40b7e}, !- Schedule Ruleset Name
  0,                                      !- Rule Order
  {e6c702f9-9c1e-432a-ae3a-87bb65c48f72}, !- Day Schedule Name
  Yes,                                    !- Apply Sunday
  Yes,                                    !- Apply Monday
  Yes,                                    !- Apply Tuesday
  Yes,                                    !- Apply Wednesday
  Yes,                                    !- Apply Thursday
  Yes,                                    !- Apply Friday
  Yes,                                    !- Apply Saturday
  DateRange,                              !- Date Specification Type
  1,                                      !- Start Month
  1,                                      !- Start Day
  12,                                     !- End Month
  31;                                     !- End Day

OS:Schedule:Day,
  {e6c702f9-9c1e-432a-ae3a-87bb65c48f72}, !- Handle
  heating setpoint day,                   !- Name
  {4d7c8c65-090b-488c-bf70-f1cb4757c707}, !- Schedule Type Limits Name
  ,                                       !- Interpolate to Timestep
  24,                                     !- Hour 1
  0,                                      !- Minute 1
  20;                                     !- Value Until Time 1

OS:Schedule:Ruleset,
  {029a97b8-8ece-4918-bc22-5438cba4594c}, !- Handle
  cooling setpoint,                       !- Name
  {4d7c8c65-090b-488c-bf70-f1cb4757c707}, !- Schedule Type Limits Name
  {7b4b32aa-b259-4a44-873b-ae5f6d574030}; !- Default Day Schedule Name

OS:Schedule:Day,
  {7b4b32aa-b259-4a44-873b-ae5f6d574030}, !- Handle
  cooling setpoint default day,           !- Name
  {4d7c8c65-090b-488c-bf70-f1cb4757c707}, !- Schedule Type Limits Name
  ,                                       !- Interpolate to Timestep
  24,                                     !- Hour 1
  0,                                      !- Minute 1
  0;                                      !- Value Until Time 1

OS:Schedule:Rule,
  {dae697e4-e16b-4666-9b18-54a06d6e69ef}, !- Handle
  cooling setpoint allday rule,           !- Name
  {029a97b8-8ece-4918-bc22-5438cba4594c}, !- Schedule Ruleset Name
  0,                                      !- Rule Order
  {7ef3fbd0-e758-403d-ad5d-3f42b9e77f20}, !- Day Schedule Name
  Yes,                                    !- Apply Sunday
  Yes,                                    !- Apply Monday
  Yes,                                    !- Apply Tuesday
  Yes,                                    !- Apply Wednesday
  Yes,                                    !- Apply Thursday
  Yes,                                    !- Apply Friday
  Yes,                                    !- Apply Saturday
  DateRange,                              !- Date Specification Type
  1,                                      !- Start Month
  1,                                      !- Start Day
  12,                                     !- End Month
  31;                                     !- End Day

OS:Schedule:Day,
  {7ef3fbd0-e758-403d-ad5d-3f42b9e77f20}, !- Handle
  cooling setpoint day,                   !- Name
  {4d7c8c65-090b-488c-bf70-f1cb4757c707}, !- Schedule Type Limits Name
  ,                                       !- Interpolate to Timestep
  24,                                     !- Hour 1
  0,                                      !- Minute 1
  25.5555555555556;                       !- Value Until Time 1

OS:ThermostatSetpoint:DualSetpoint,
  {35d199fc-c450-4e2d-b521-fe30f5fa56dc}, !- Handle
  conditioned space temperature setpoint, !- Name
  {53b09a2f-0be8-420f-9915-8f851db40b7e}, !- Heating Setpoint Temperature Schedule Name
  {029a97b8-8ece-4918-bc22-5438cba4594c}, !- Cooling Setpoint Temperature Schedule Name
  0;                                      !- Temperature Difference Between Cutout And Setpoint {deltaC}

OS:ScheduleTypeLimits,
  {4d7c8c65-090b-488c-bf70-f1cb4757c707}, !- Handle
  Temperature,                            !- Name
  ,                                       !- Lower Limit Value
  ,                                       !- Upper Limit Value
  Continuous,                             !- Numeric Type
  Temperature;                            !- Unit Type

OS:Surface,
  {d4d6bc79-c8ad-4663-a0eb-82a1911460f2}, !- Handle
  Roof1,                                  !- Name
  RoofCeiling,                            !- Surface Type
  {0532bd13-96b5-4663-b188-f4a3ef47d3f2}, !- Construction Name
  {5c362f06-eb4b-4dd5-b8ee-068395312e52}, !- Space Name
  Outdoors,                               !- Outside Boundary Condition
  ,                                       !- Outside Boundary Condition Object
  SunExposed,                             !- Sun Exposure
  WindExposed,                            !- Wind Exposure
  ,                                       !- View Factor to Ground
  ,                                       !- Number of Vertices
  -26.9347048849634, 58.0557891618865, 2.4384, !- X,Y,Z Vertex 1 {m}
  -26.9347048849634, 46.7895631136661, 8.0715130241102, !- X,Y,Z Vertex 2 {m}
  -14.3386812381136, 46.7895631136661, 8.0715130241102, !- X,Y,Z Vertex 3 {m}
  -14.3386812381136, 58.0557891618865, 2.4384; !- X,Y,Z Vertex 4 {m}

OS:AdditionalProperties,
  {547a560e-9119-4b40-993b-6aec85c7c570}, !- Handle
  {d4d6bc79-c8ad-4663-a0eb-82a1911460f2}, !- Object Name
  Length,                                 !- Feature Name 1
  Double,                                 !- Feature Data Type 1
  41.325536899113608,                     !- Feature Value 1
  Width,                                  !- Feature Name 2
  Double,                                 !- Feature Data Type 2
  41.325536899113601,                     !- Feature Value 2
  Azimuth,                                !- Feature Name 3
  Integer,                                !- Feature Data Type 3
  0,                                      !- Feature Value 3
  Tilt,                                   !- Feature Name 4
  Double,                                 !- Feature Data Type 4
  0.5,                                    !- Feature Value 4
  SurfaceType,                            !- Feature Name 5
  String,                                 !- Feature Data Type 5
  Roof;                                   !- Feature Value 5

OS:ThermalZone,
  {9460bda3-d9d4-4036-a097-6b67c521eb61}, !- Handle
  attic - vented,                         !- Name
  1,                                      !- Multiplier
  ,                                       !- Ceiling Height {m}
  356.390921899745,                       !- Volume {m3}
  ,                                       !- Floor Area {m2}
  ,                                       !- Zone Inside Convection Algorithm
  ,                                       !- Zone Outside Convection Algorithm
  ,                                       !- Zone Conditioning Equipment List Name
  {eb60a325-366e-4021-801f-a17a7eaa71c3}, !- Zone Air Inlet Port List
  {b3c5815b-d666-4ecb-b37c-c31d1e3a46e3}, !- Zone Air Exhaust Port List
  {4e5e5e2b-fa80-4408-aad7-9cb4d6261808}, !- Zone Air Node Name
  {717af323-2558-417a-997e-9fef51015521}, !- Zone Return Air Port List
  ,                                       !- Primary Daylighting Control Name
  ,                                       !- Fraction of Zone Controlled by Primary Daylighting Control
  ,                                       !- Secondary Daylighting Control Name
  ,                                       !- Fraction of Zone Controlled by Secondary Daylighting Control
  ,                                       !- Illuminance Map Name
  ,                                       !- Group Rendering Name
  ,                                       !- Thermostat Name
  No;                                     !- Use Ideal Air Loads

OS:Node,
  {88871b95-c9b4-4833-9080-f91450e96a15}, !- Handle
  Node 2,                                 !- Name
  {4e5e5e2b-fa80-4408-aad7-9cb4d6261808}, !- Inlet Port
  ;                                       !- Outlet Port

OS:Connection,
  {4e5e5e2b-fa80-4408-aad7-9cb4d6261808}, !- Handle
  {9460bda3-d9d4-4036-a097-6b67c521eb61}, !- Source Object
  11,                                     !- Outlet Port
  {88871b95-c9b4-4833-9080-f91450e96a15}, !- Target Object
  2;                                      !- Inlet Port

OS:PortList,
  {eb60a325-366e-4021-801f-a17a7eaa71c3}, !- Handle
  {9460bda3-d9d4-4036-a097-6b67c521eb61}; !- HVAC Component

OS:PortList,
  {b3c5815b-d666-4ecb-b37c-c31d1e3a46e3}, !- Handle
  {9460bda3-d9d4-4036-a097-6b67c521eb61}; !- HVAC Component

OS:PortList,
  {717af323-2558-417a-997e-9fef51015521}, !- Handle
  {9460bda3-d9d4-4036-a097-6b67c521eb61}; !- HVAC Component

OS:Sizing:Zone,
  {a3f91cbd-8c39-4ea7-946d-69a122afa604}, !- Handle
  {9460bda3-d9d4-4036-a097-6b67c521eb61}, !- Zone or ZoneList Name
  SupplyAirTemperature,                   !- Zone Cooling Design Supply Air Temperature Input Method
  14,                                     !- Zone Cooling Design Supply Air Temperature {C}
  11.11,                                  !- Zone Cooling Design Supply Air Temperature Difference {deltaC}
  SupplyAirTemperature,                   !- Zone Heating Design Supply Air Temperature Input Method
  40,                                     !- Zone Heating Design Supply Air Temperature {C}
  11.11,                                  !- Zone Heating Design Supply Air Temperature Difference {deltaC}
  0.0085,                                 !- Zone Cooling Design Supply Air Humidity Ratio {kg-H2O/kg-air}
  0.008,                                  !- Zone Heating Design Supply Air Humidity Ratio {kg-H2O/kg-air}
  ,                                       !- Zone Heating Sizing Factor
  ,                                       !- Zone Cooling Sizing Factor
  DesignDay,                              !- Cooling Design Air Flow Method
  ,                                       !- Cooling Design Air Flow Rate {m3/s}
  ,                                       !- Cooling Minimum Air Flow per Zone Floor Area {m3/s-m2}
  ,                                       !- Cooling Minimum Air Flow {m3/s}
  ,                                       !- Cooling Minimum Air Flow Fraction
  DesignDay,                              !- Heating Design Air Flow Method
  ,                                       !- Heating Design Air Flow Rate {m3/s}
  ,                                       !- Heating Maximum Air Flow per Zone Floor Area {m3/s-m2}
  ,                                       !- Heating Maximum Air Flow {m3/s}
  ,                                       !- Heating Maximum Air Flow Fraction
  No,                                     !- Account for Dedicated Outdoor Air System
  NeutralSupplyAir,                       !- Dedicated Outdoor Air System Control Strategy
  autosize,                               !- Dedicated Outdoor Air Low Setpoint Temperature for Design {C}
  autosize,                               !- Dedicated Outdoor Air High Setpoint Temperature for Design {C}
  Sensible Load Only No Latent Load,      !- Zone Load Sizing Method
  HumidityRatioDifference,                !- Zone Latent Cooling Design Supply Air Humidity Ratio Input Method
  ,                                       !- Zone Dehumidification Design Supply Air Humidity Ratio {kgWater/kgDryAir}
  0.005,                                  !- Zone Cooling Design Supply Air Humidity Ratio Difference {kgWater/kgDryAir}
  HumidityRatioDifference,                !- Zone Latent Heating Design Supply Air Humidity Ratio Input Method
  ,                                       !- Zone Humidification Design Supply Air Humidity Ratio {kgWater/kgDryAir}
  0.005,                                  !- Zone Humidification Design Supply Air Humidity Ratio Difference {kgWater/kgDryAir}
  ,                                       !- Zone Humidistat Dehumidification Set Point Schedule Name
  ,                                       !- Zone Humidistat Humidification Set Point Schedule Name
  ,                                       !- Design Zone Air Distribution Effectiveness in Cooling Mode
  ,                                       !- Design Zone Air Distribution Effectiveness in Heating Mode
  ,                                       !- Design Zone Secondary Recirculation Fraction {dimensionless}
  ,                                       !- Design Minimum Zone Ventilation Efficiency {dimensionless}
  Coincident;                             !- Sizing Option

OS:ZoneHVAC:EquipmentList,
  {10ae42b3-d206-48b2-b649-0d804ce6097c}, !- Handle
  Zone HVAC Equipment List 2,             !- Name
  {9460bda3-d9d4-4036-a097-6b67c521eb61}; !- Thermal Zone

OS:AdditionalProperties,
  {3030bce2-da84-4480-a084-8f8ea4444754}, !- Handle
  {9460bda3-d9d4-4036-a097-6b67c521eb61}, !- Object Name
  ObjectType,                             !- Feature Name 1
  String,                                 !- Feature Data Type 1
  attic - vented;                         !- Feature Value 1

OS:Space,
  {5c362f06-eb4b-4dd5-b8ee-068395312e52}, !- Handle
  attic - vented 1,                       !- Name
  ,                                       !- Space Type Name
  ,                                       !- Default Construction Set Name
  ,                                       !- Default Schedule Set Name
  ,                                       !- Direction of Relative North {deg}
  ,                                       !- X Origin {m}
  ,                                       !- Y Origin {m}
  ,                                       !- Z Origin {m}
  ,                                       !- Building Story Name
  {9460bda3-d9d4-4036-a097-6b67c521eb61}, !- Thermal Zone Name
  ,                                       !- Part of Total Floor Area
  ,                                       !- Design Specification Outdoor Air Object Name
  ,                                       !- Building Unit Name
  356.390921899745;                       !- Volume {m3}

OS:Material,