
OS:Version,
  {f400152b-e8de-4499-be2c-777d2c78fa73}, !- Handle
  3.10.0;                                 !- Version Identifier

OS:SimulationControl,
  {a093dbe7-9837-44b0-ace5-c83e4ef0b1e2}, !- Handle
  ,                                       !- Do Zone Sizing Calculation
  ,                                       !- Do System Sizing Calculation
  ,                                       !- Do Plant Sizing Calculation
  No;                                     !- Run Simulation for Sizing Periods

OS:Timestep,
  {b4def208-0cfd-4633-877a-0906609f1a1a}, !- Handle
  1;                                      !- Number of Timesteps per Hour

OS:ShadowCalculation,
  {71cfdfc7-f7bc-4b60-adb8-05dde84e661e}, !- Handle
  PolygonClipping,                        !- Shading Calculation Method
  ,                                       !- Shading Calculation Update Frequency Method
  20,                                     !- Shading Calculation Update Frequency
  200,                                    !- Maximum Figures in Shadow Overlap Calculations
  ,                                       !- Polygon Clipping Algorithm
  512,                                    !- Pixel Counting Resolution
  ,                                       !- Sky Diffuse Modeling Algorithm
  No,                                     !- Output External Shading Calculation Results
  No,                                     !- Disable Self-Shading Within Shading Zone Groups
  No;                                     !- Disable Self-Shading From Shading Zone Groups to Other Zones

OS:SurfaceConvectionAlgorithm:Outside,
  {ffef9340-2c97-4ff3-93f5-13ca7a2798d6}, !- Handle
  DOE-2;                                  !- Algorithm

OS:SurfaceConvectionAlgorithm:Inside,
  {f05b6e88-801c-4f49-9c65-2c48bdd59182}, !- Handle
  TARP;                                   !- Algorithm

OS:ZoneCapacitanceMultiplier:ResearchSpecial,
  {ae19eecf-4d3a-4f1d-96de-6aef8c8660cf}, !- Handle
  7,                                      !- Temperature Capacity Multiplier
  15,                                     !- Humidity Capacity Multiplier
  ;                                       !- Carbon Dioxide Capacity Multiplier

OS:ConvergenceLimits,
  {5b6b93c4-daf8-4445-9ecc-3f9fbca36c12}, !- Handle
  0;                                      !- Minimum System Timestep {minutes}

OS:RunPeriod,
  {36790fec-4a73-420a-8441-4ca9069d36d0}, !- Handle
  Run Period 1,                           !- Name
  1,                                      !- Begin Month
  1,                                      !- Begin Day of Month
  12,                                     !- End Month
  31,                                     !- End Day of Month
  ,                                       !- Use Weather File Holidays and Special Days
  ,                                       !- Use Weather File Daylight Saving Period
  ,                                       !- Apply Weekend Holiday Rule
  ,                                       !- Use Weather File Rain Indicators
  ,                                       !- Use Weather File Snow Indicators
  ;                                       !- Number of Times Runperiod to be Repeated

OS:PerformancePrecisionTradeoffs,
  {6a5dae5e-b86c-49ac-9c69-e3bf730571da}, !- Handle
  ,                                       !- Use Coil Direct Solutions
  CarrollMRT;                             !- Zone Radiant Exchange Algorithm

OS:WeatherFile,
  {20e687c8-f650-4f12-a016-d65acb763a7e}, !- Handle
  Buffalo Niagara Intl Ap,                !- City
  NY,                                     !- State Province Region
  USA,                                    !- Country
  TMY3,                                   !- Data Source
  725280,                                 !- WMO Number
  42.93,                                  !- Latitude {deg}
  -78.73,                                 !- Longitude {deg}
  -5,                                     !- Time Zone {hr}
  215,                                    !- Elevation {m}
  /Users/nmoore/github/urbanopt-example-geojson-project/example_project/weather/USA_NY_Buffalo-Greater.Buffalo.Intl.AP.725280_TMY3.epw, !- Url
  6B50E0FF,                               !- Checksum
  ,                                       !- Start Date Actual Year
  Sunday;                                 !- Start Day of Week

OS:YearDescription,
  {c2716ce1-6102-4658-bad1-4d6c487b4e88}, !- Handle
  2007,                                   !- Calendar Year
  ,                                       !- Day of Week for Start Day
  ;                                       !- Is Leap Year

OS:Site,
  {4f290b86-09f1-4c87-92b2-3e59a638a6b3}, !- Handle
  Buffalo Niagara Intl Ap_NY,             !- Name
  42.93,                                  !- Latitude {deg}
  -78.73,                                 !- Longitude {deg}
  -5,                                     !- Time Zone {hr}
  215,                                    !- Elevation {m}
  Suburbs,                                !- Terrain
  Yes;                                    !- Keep Site Location Information

OS:RunPeriodControl:DaylightSavingTime,
  {a0914dd0-6c80-492a-82e8-58c2bd67d1a2}, !- Handle
  Mar 12,                                 !- Start Date
  Nov 5;                                  !- End Date

OS:Site:GroundTemperature:Shallow,
  {de340723-575e-443f-acde-a64e40c0a698}, !- Handle
  4.30207395723828,                       !- January Surface Ground Temperature {C}
  2.29327249652502,                       !- February Surface Ground Temperature {C}
  2.13240047156047,                       !- March Surface Ground Temperature {C}
  3.08567940719286,                       !- April Surface Ground Temperature {C}
  6.91256312497526,                       !- May Surface Ground Temperature {C}
  10.7216195949507,                       !- June Surface Ground Temperature {C}
  14.0238679822574,                       !- July Surface Ground Temperature {C}
  16.1157611184724,                       !- August Surface Ground Temperature {C}
  16.2934789303462,                       !- September Surface Ground Temperature {C}
  14.5920754632847,                       !- October Surface Ground Temperature {C}
  11.374036348653,                        !- November Surface Ground Temperature {C}
  7.68182621661674;                       !- December Surface Ground Temperature {C}

OS:ThermalZone,
  {9bcd8bf3-027d-47d4-9d68-0dfb2e9e67f5}, !- Handle
  conditioned space,                      !- Name
  1,                                      !- Multiplier
  ,                                       !- Ceiling Height {m}
  692.06373070848,                        !- Volume {m3}
  ,                                       !- Floor Area {m2}
  ,                                       !- Zone Inside Convection Algorithm
  ,                                       !- Zone Outside Convection Algorithm
  ,                                       !- Zone Conditioning Equipment List Name
  {158a4927-f8ca-4679-840f-9dbfdc9caac1}, !- Zone Air Inlet Port List
  {1134d922-3482-4a31-8cbd-2b39f74b518f}, !- Zone Air Exhaust Port List
  {e23bb7fe-856e-4195-82bb-c4ea922e732c}, !- Zone Air Node Name
  {65991c49-d805-4ade-93f1-cbd6f402a7ae}, !- Zone Return Air Port List
  ,                                       !- Primary Daylighting Control Name
  ,                                       !- Fraction of Zone Controlled by Primary Daylighting Control
  ,                                       !- Secondary Daylighting Control Name
  ,                                       !- Fraction of Zone Controlled by Secondary Daylighting Control
  ,                                       !- Illuminance Map Name
  ,                                       !- Group Rendering Name
  {20f7ce8a-3caf-4d91-976b-bbd18a5e4fab}, !- Thermostat Name
  No;                                     !- Use Ideal Air Loads

OS:Node,
  {a86b22c7-2d01-408e-b59a-05873ffa4c38}, !- Handle
  Node 1,                                 !- Name
  {e23bb7fe-856e-4195-82bb-c4ea922e732c}, !- Inlet Port
  ;                                       !- Outlet Port

OS:Connection,
  {e23bb7fe-856e-4195-82bb-c4ea922e732c}, !- Handle
  {9bcd8bf3-027d-47d4-9d68-0dfb2e9e67f5}, !- Source Object
  11,                                     !- Outlet Port
  {a86b22c7-2d01-408e-b59a-05873ffa4c38}, !- Target Object
  2;                                      !- Inlet Port

OS:PortList,
  {158a4927-f8ca-4679-840f-9dbfdc9caac1}, !- Handle
  {9bcd8bf3-027d-47d4-9d68-0dfb2e9e67f5}, !- HVAC Component
  {44967f2e-0a19-4f6e-a47e-0896268fb3a0}; !- Port 1

OS:PortList,
  {1134d922-3482-4a31-8cbd-2b39f74b518f}, !- Handle
  {9bcd8bf3-027d-47d4-9d68-0dfb2e9e67f5}; !- HVAC Component

OS:PortList,
  {65991c49-d805-4ade-93f1-cbd6f402a7ae}, !- Handle
  {9bcd8bf3-027d-47d4-9d68-0dfb2e9e67f5}, !- HVAC Component
  {bbdd0ef3-70aa-4ee5-9264-5e1185796a32}; !- Port 1

OS:Sizing:Zone,
  {d921e246-f17a-4787-a66a-3be4714e0b35}, !- Handle
  {9bcd8bf3-027d-47d4-9d68-0dfb2e9e67f5}, !- Zone or ZoneList Name
  SupplyAirTemperature,                   !- Zone Cooling Design Supply Air Temperature Input Method
  14,                                     !- Zone Cooling Design Supply Air Temperature {C}
  11.11,                                  !- Zone Cooling Design Supply Air Temperature Difference {deltaC}
  SupplyAirTemperature,                   !- Zone Heating Design Supply Air Temperature Input Method
  40,                                     !- Zone Heating Design Supply Air Temperature {C}
  11.11,                                  !- Zone Heating Design Supply Air Temperature Difference {deltaC}
  0.0085,                                 !- Zone Cooling Design Supply Air Humidity Ratio {kg-H2O/kg-air}
  0.008,                                  !- Zone Heating Design Supply Air Humidity Ratio {kg-H2O/kg-air}
  ,                                       !- Zone Heating Sizing Factor
  ,                                       !- Zone Cooling Sizing Factor
  DesignDay,                              !- Cooling Design Air Flow Method
  ,                                       !- Cooling Design Air Flow Rate {m3/s}
  ,                                       !- Cooling Minimum Air Flow per Zone Floor Area {m3/s-m2}
  ,                                       !- Cooling Minimum Air Flow {m3/s}
  ,                                       !- Cooling Minimum Air Flow Fraction
  DesignDay,                              !- Heating Design Air Flow Method
  ,                                       !- Heating Design Air Flow Rate {m3/s}
  ,                                       !- Heating Maximum Air Flow per Zone Floor Area {m3/s-m2}
  ,                                       !- Heating Maximum Air Flow {m3/s}
  ,                                       !- Heating Maximum Air Flow Fraction
  No,                                     !- Account for Dedicated Outdoor Air System
  NeutralSupplyAir,                       !- Dedicated Outdoor Air System Control Strategy
  autosize,                               !- Dedicated Outdoor Air Low Setpoint Temperature for Design {C}
  autosize,                               !- Dedicated Outdoor Air High Setpoint Temperature for Design {C}
  Sensible Load Only No Latent Load,      !- Zone Load Sizing Method
  HumidityRatioDifference,                !- Zone Latent Cooling Design Supply Air Humidity Ratio Input Method
  ,                                       !- Zone Dehumidification Design Supply Air Humidity Ratio {kgWater/kgDryAir}
  0.005,                                  !- Zone Cooling Design Supply Air Humidity Ratio Difference {kgWater/kgDryAir}
  HumidityRatioDifference,                !- Zone Latent Heating Design Supply Air Humidity Ratio Input Method
  ,                                       !- Zone Humidification Design Supply Air Humidity Ratio {kgWater/kgDryAir}
  0.005,                                  !- Zone Humidification Design Supply Air Humidity Ratio Difference {kgWater/kgDryAir}
  ,                                       !- Zone Humidistat Dehumidification Set Point Schedule Name
  ,                                       !- Zone Humidistat Humidification Set Point Schedule Name
  ,                                       !- Design Zone Air Distribution Effectiveness in Cooling Mode
  ,                                       !- Design Zone Air Distribution Effectiveness in Heating Mode
  ,                                       !- Design Zone Secondary Recirculation Fraction {dimensionless}
  ,                                       !- Design Minimum Zone Ventilation Efficiency {dimensionless}
  Coincident;                             !- Sizing Option

OS:ZoneHVAC:EquipmentList,
  {944ffb30-259f-48b3-b6a7-e6f5fd023783}, !- Handle
  Zone HVAC Equipment List 1,             !- Name
  {9bcd8bf3-027d-47d4-9d68-0dfb2e9e67f5}, !- Thermal Zone
  ,                                       !- Load Distribution Scheme
  {4b68cf15-eacf-42a6-adc6-1a8a86e9afee}, !- Zone Equipment 1
  1,                                      !- Zone Equipment Cooling Sequence 1
  1,                                      !- Zone Equipment Heating or No-Load Sequence 1
  {d012870a-4422-4379-9f27-19913606beae}, !- Zone Equipment Sequential Cooling Fraction Schedule Name 1
  {9ee01d44-4e82-499b-bd99-44d3743ba3d5}; !- Zone Equipment Sequential Heating Fraction Schedule Name 1

OS:AdditionalProperties,
  {ff689da7-f6ae-490a-9220-97bbb9495ed6}, !- Handle
  {9bcd8bf3-027d-47d4-9d68-0dfb2e9e67f5}, !- Object Name
  ObjectType,                             !- Feature Name 1
  String,                                 !- Feature Data Type 1
  conditioned space;                      !- Feature Value 1

OS:Space,
  {b5b60c50-7d4d-4881-b5a7-78181c5d34a5}, !- Handle
  conditioned space 1,                    !- Name
  ,                                       !- Space Type Name
  ,                                       !- Default Construction Set Name
  ,                                       !- Default Schedule Set Name
  ,                                       !- Direction of Relative North {deg}
  ,                                       !- X Origin {m}
  ,                                       !- Y Origin {m}
  ,                                       !- Z Origin {m}
  ,                                       !- Building Story Name
  {9bcd8bf3-027d-47d4-9d68-0dfb2e9e67f5}, !- Thermal Zone Name
  ,                                       !- Part of Total Floor Area
  ,                                       !- Design Specification Outdoor Air Object Name
  ,                                       !- Building Unit Name
  692.06373070848;                        !- Volume {m3}

OS:Schedule:Ruleset,
  {025184e9-f666-4022-bd59-0ec24c323e2a}, !- Handle
  heating setpoint,                       !- Name
  {f0e2b9c5-3b85-499f-a697-7ba0eb1ae45d}, !- Schedule Type Limits Name
  {29f5332b-fd9a-4b1e-a586-43036155e7f5}; !- Default Day Schedule Name

OS:Schedule:Day,
  {29f5332b-fd9a-4b1e-a586-43036155e7f5}, !- Handle
  heating setpoint default day,           !- Name
  {f0e2b9c5-3b85-499f-a697-7ba0eb1ae45d}, !- Schedule Type Limits Name
  ,                                       !- Interpolate to Timestep
  24,                                     !- Hour 1
  0,                                      !- Minute 1
  0;                                      !- Value Until Time 1

OS:Schedule:Rule,
  {d8d19bf1-37c1-46f8-a647-b8e5c9e81afa}, !- Handle
  heating setpoint allday rule,           !- Name
  {025184e9-f666-4022-bd59-0ec24c323e2a}, !- Schedule Ruleset Name
  0,                                      !- Rule Order
  {dac2cbec-8f08-4405-a2ca-5f7e56b346cb}, !- Day Schedule Name
  Yes,                                    !- Apply Sunday
  Yes,                                    !- Apply Monday
  Yes,                                    !- Apply Tuesday
  Yes,                                    !- Apply Wednesday
  Yes,                                    !- Apply Thursday
  Yes,                                    !- Apply Friday
  Yes,                                    !- Apply Saturday
  DateRange,                              !- Date Specification Type
  1,                                      !- Start Month
  1,                                      !- Start Day
  12,                                     !- End Month
  31;                                     !- End Day

OS:Schedule:Day,
  {dac2cbec-8f08-4405-a2ca-5f7e56b346cb}, !- Handle
  heating setpoint day,                   !- Name
  {f0e2b9c5-3b85-499f-a697-7ba0eb1ae45d}, !- Schedule Type Limits Name
  ,                                       !- Interpolate to Timestep
  24,                                     !- Hour 1
  0,                                      !- Minute 1
  20;                                     !- Value Until Time 1

OS:Schedule:Ruleset,
  {9052057c-2037-41df-8c12-c4bfa31f10b0}, !- Handle
  cooling setpoint,                       !- Name
  {f0e2b9c5-3b85-499f-a697-7ba0eb1ae45d}, !- Schedule Type Limits Name
  {8ba86736-7d2b-4e39-8c73-359c1bc34a65}; !- Default Day Schedule Name

OS:Schedule:Day,
  {8ba86736-7d2b-4e39-8c73-359c1bc34a65}, !- Handle
  cooling setpoint default day,           !- Name
  {f0e2b9c5-3b85-499f-a697-7ba0eb1ae45d}, !- Schedule Type Limits Name
  ,                                       !- Interpolate to Timestep
  24,                                     !- Hour 1
  0,                                      !- Minute 1
  0;                                      !- Value Until Time 1

OS:Schedule:Rule,
  {62e3b979-e287-4775-bc63-18f06e620008}, !- Handle
  cooling setpoint allday rule,           !- Name
  {9052057c-2037-41df-8c12-c4bfa31f10b0}, !- Schedule Ruleset Name
  0,                                      !- Rule Order
  {9af124c0-3408-4ffd-a633-ca7677a6a174}, !- Day Schedule Name
  Yes,                                    !- Apply Sunday
  Yes,                                    !- Apply Monday
  Yes,                                    !- Apply Tuesday
  Yes,                                    !- Apply Wednesday
  Yes,                                    !- Apply Thursday
  Yes,                                    !- Apply Friday
  Yes,                                    !- Apply Saturday
  DateRange,                              !- Date Specification Type
  1,                                      !- Start Month
  1,                                      !- Start Day
  12,                                     !- End Month
  31;                                     !- End Day

OS:Schedule:Day,
  {9af124c0-3408-4ffd-a633-ca7677a6a174}, !- Handle
  cooling setpoint day,                   !- Name
  {f0e2b9c5-3b85-499f-a697-7ba0eb1ae45d}, !- Schedule Type Limits Name
  ,                                       !- Interpolate to Timestep
  24,                                     !- Hour 1
  0,                                      !- Minute 1
  25.5555555555556;                       !- Value Until Time 1

OS:ThermostatSetpoint:DualSetpoint,
  {20f7ce8a-3caf-4d91-976b-bbd18a5e4fab}, !- Handle
  conditioned space temperature setpoint, !- Name
  {025184e9-f666-4022-bd59-0ec24c323e2a}, !- Heating Setpoint Temperature Schedule Name
  {9052057c-2037-41df-8c12-c4bfa31f10b0}, !- Cooling Setpoint Temperature Schedule Name
  0;                                      !- Temperature Difference Between Cutout And Setpoint {deltaC}

OS:ScheduleTypeLimits,
  {f0e2b9c5-3b85-499f-a697-7ba0eb1ae45d}, !- Handle
  Temperature,                            !- Name
  ,                                       !- Lower Limit Value
  ,                                       !- Upper Limit Value
  Continuous,                             !- Numeric Type
  Temperature;                            !- Unit Type

OS:Surface,
  {2b7ec392-0c9b-4fc2-a1ae-a15f9913fe64}, !- Handle
  Roof1,                                  !- Name
  RoofCeiling,                            !- Surface Type
  {665c7e63-80b7-44d3-8b4b-8aa1bf99aea2}, !- Construction Name
  {21bc83a5-9b9b-4afa-951d-bbd2a5f74f0a}, !- Space Name
  Outdoors,                               !- Outside Boundary Condition
  ,                                       !- Outside Boundary Condition Object
  SunExposed,                             !- Sun Exposure
  WindExposed,                            !- Wind Exposure
  ,                                       !- View Factor to Ground
  ,                                       !- Number of Vertices
  -26.9347048849634, 58.0557891618865, 2.4384, !- X,Y,Z Vertex 1 {m}
  -26.9347048849634, 46.7895631136661, 8.0715130241102, !- X,Y,Z Vertex 2 {m}
  -14.3386812381136, 46.7895631136661, 8.0715130241102, !- X,Y,Z Vertex 3 {m}
  -14.3386812381136, 58.0557891618865, 2.4384; !- X,Y,Z Vertex 4 {m}

OS:AdditionalProperties,
  {4b94d00c-42f4-4482-ba0e-bc6321c12e21}, !- Handle
  {2b7ec392-0c9b-4fc2-a1ae-a15f9913fe64}, !- Object Name
  Length,                                 !- Feature Name 1
  Double,                                 !- Feature Data Type 1
  41.325536899113608,                     !- Feature Value 1
  Width,                                  !- Feature Name 2
  Double,                                 !- Feature Data Type 2
  41.325536899113601,                     !- Feature Value 2
  Azimuth,                                !- Feature Name 3
  Integer,                                !- Feature Data Type 3
  0,                                      !- Feature Value 3
  Tilt,                                   !- Feature Name 4
  Double,                                 !- Feature Data Type 4
  0.5,                                    !- Feature Value 4
  SurfaceType,                            !- Feature Name 5
  String,                                 !- Feature Data Type 5
  Roof;                                   !- Feature Value 5

OS:ThermalZone,
  {44869555-1b6f-4d3b-a20d-862b96125241}, !- Handle
  attic - vented,                         !- Name
  1,                                      !- Multiplier
  ,                                       !- Ceiling Height {m}
  356.390921899745,                       !- Volume {m3}
  ,                                       !- Floor Area {m2}
  ,                                       !- Zone Inside Convection Algorithm
  ,                                       !- Zone Outside Convection Algorithm
  ,                                       !- Zone Conditioning Equipment List Name
  {3557f132-53ff-40e0-9de2-82974cceb97a}, !- Zone Air Inlet Port List
  {1dab3043-b97f-45ea-abc6-bb1240c3b112}, !- Zone Air Exhaust Port List
  {38d42bc5-19f5-42a0-a245-18f0225b1758}, !- Zone Air Node Name
  {06c74e44-db4e-4d49-9156-670e2cd60349}, !- Zone Return Air Port List
  ,                                       !- Primary Daylighting Control Name
  ,                                       !- Fraction of Zone Controlled by Primary Daylighting Control
  ,                                       !- Secondary Daylighting Control Name
  ,                                       !- Fraction of Zone Controlled by Secondary Daylighting Control
  ,                                       !- Illuminance Map Name
  ,                                       !- Group Rendering Name
  ,                                       !- Thermostat Name
  No;                                     !- Use Ideal Air Loads

OS:Node,
  {177e58a1-077b-49b4-8c20-974be3a153f0}, !- Handle
  Node 2,                                 !- Name
  {38d42bc5-19f5-42a0-a245-18f0225b1758}, !- Inlet Port
  ;                                       !- Outlet Port

OS:Connection,
  {38d42bc5-19f5-42a0-a245-18f0225b1758}, !- Handle
  {44869555-1b6f-4d3b-a20d-862b96125241}, !- Source Object
  11,                                     !- Outlet Port
  {177e58a1-077b-49b4-8c20-974be3a153f0}, !- Target Object
  2;                                      !- Inlet Port

OS:PortList,
  {3557f132-53ff-40e0-9de2-82974cceb97a}, !- Handle
  {44869555-1b6f-4d3b-a20d-862b96125241}; !- HVAC Component

OS:PortList,
  {1dab3043-b97f-45ea-abc6-bb1240c3b112}, !- Handle
  {44869555-1b6f-4d3b-a20d-862b96125241}; !- HVAC Component

OS:PortList,
  {06c74e44-db4e-4d49-9156-670e2cd60349}, !- Handle
  {44869555-1b6f-4d3b-a20d-862b96125241}; !- HVAC Component

OS:Sizing:Zone,
  {ace8badb-a29a-4dfa-b113-e9054e7c7ce6}, !- Handle
  {44869555-1b6f-4d3b-a20d-862b96125241}, !- Zone or ZoneList Name
  SupplyAirTemperature,                   !- Zone Cooling Design Supply Air Temperature Input Method
  14,                                     !- Zone Cooling Design Supply Air Temperature {C}
  11.11,                                  !- Zone Cooling Design Supply Air Temperature Difference {deltaC}
  SupplyAirTemperature,                   !- Zone Heating Design Supply Air Temperature Input Method
  40,                                     !- Zone Heating Design Supply Air Temperature {C}
  11.11,                                  !- Zone Heating Design Supply Air Temperature Difference {deltaC}
  0.0085,                                 !- Zone Cooling Design Supply Air Humidity Ratio {kg-H2O/kg-air}
  0.008,                                  !- Zone Heating Design Supply Air Humidity Ratio {kg-H2O/kg-air}
  ,                                       !- Zone Heating Sizing Factor
  ,                                       !- Zone Cooling Sizing Factor
  DesignDay,                              !- Cooling Design Air Flow Method
  ,                                       !- Cooling Design Air Flow Rate {m3/s}
  ,                                       !- Cooling Minimum Air Flow per Zone Floor Area {m3/s-m2}
  ,                                       !- Cooling Minimum Air Flow {m3/s}
  ,                                       !- Cooling Minimum Air Flow Fraction
  DesignDay,                              !- Heating Design Air Flow Method
  ,                                       !- Heating Design Air Flow Rate {m3/s}
  ,                                       !- Heating Maximum Air Flow per Zone Floor Area {m3/s-m2}
  ,                                       !- Heating Maximum Air Flow {m3/s}
  ,                                       !- Heating Maximum Air Flow Fraction
  No,                                     !- Account for Dedicated Outdoor Air System
  NeutralSupplyAir,                       !- Dedicated Outdoor Air System Control Strategy
  autosize,                               !- Dedicated Outdoor Air Low Setpoint Temperature for Design {C}
  autosize,                               !- Dedicated Outdoor Air High Setpoint Temperature for Design {C}
  Sensible Load Only No Latent Load,      !- Zone Load Sizing Method
  HumidityRatioDifference,                !- Zone Latent Cooling Design Supply Air Humidity Ratio Input Method
  ,                                       !- Zone Dehumidification Design Supply Air Humidity Ratio {kgWater/kgDryAir}
  0.005,                                  !- Zone Cooling Design Supply Air Humidity Ratio Difference {kgWater/kgDryAir}
  HumidityRatioDifference,                !- Zone Latent Heating Design Supply Air Humidity Ratio Input Method
  ,                                       !- Zone Humidification Design Supply Air Humidity Ratio {kgWater/kgDryAir}
  0.005,                                  !- Zone Humidification Design Supply Air Humidity Ratio Difference {kgWater/kgDryAir}
  ,                                       !- Zone Humidistat Dehumidification Set Point Schedule Name
  ,                                       !- Zone Humidistat Humidification Set Point Schedule Name
  ,                                       !- Design Zone Air Distribution Effectiveness in Cooling Mode
  ,                                       !- Design Zone Air Distribution Effectiveness in Heating Mode
  ,                                       !- Design Zone Secondary Recirculation Fraction {dimensionless}
  ,                                       !- Design Minimum Zone Ventilation Efficiency {dimensionless}
  Coincident;                             !- Sizing Option

OS:ZoneHVAC:EquipmentList,
  {fb0d3061-d09b-4c08-9cc3-6b272487980b}, !- Handle
  Zone HVAC Equipment List 2,             !- Name
  {44869555-1b6f-4d3b-a20d-862b96125241}; !- Thermal Zone

OS:AdditionalProperties,
  {38b80717-57f6-4b72-8bc3-3a0900d04ee9}, !- Handle
  {44869555-1b6f-4d3b-a20d-862b96125241}, !- Object Name
  ObjectType,                             !- Feature Name 1
  String,                                 !- Feature Data Type 1
  attic - vented;                         !- Feature Value 1

OS:Space,
  {21bc83a5-9b9b-4afa-951d-bbd2a5f74f0a}, !- Handle
  attic - vented 1,                       !- Name
  ,                                       !- Space Type Name
  ,                                       !- Default Construction Set Name
  ,                                       !- Default Schedule Set Name
  ,                                       !- Direction of Relative North {deg}
  ,                                       !- X Origin {m}
  ,                                       !- Y Origin {m}
  ,                                       !- Z Origin {m}
  ,                                       !- Building Story Name
  {44869555-1b6f-4d3b-a20d-862b96125241}, !- Thermal Zone Name
  ,                                       !- Part of Total Floor Area
  ,                                       !- Design Specification Outdoor Air Object Name
  ,                                       !- Building Unit Name
  356.390921899745;                       !- Volume {m3}

OS:Material,
  {f11a6316-d1c6-44ca-9e65-885361a2ca66}, !- Handle
  asphalt or fiberglass shingles,         !- Name
  Rough,                                  !- Roughness
  0.00635,                                !- Thickness {m}
  0.162714,                               !- Conductivity {W/m-K}
  1121.4,                                 !- Density {kg/m3}
  1465.45,                                !- Specific Heat {J/kg-K}
  0.9,                                    !- Thermal Absorptance
  0.85,                                   !- Solar Absorptance