
OS:Version,
  {2b80856c-a555-49a6-b0e0-1d3f37737e2b}, !- Handle
  3.9.0;                                  !- Version Identifier

OS:SimulationControl,
  {28caa0ab-3d03-4b19-8768-96dbd47d965f}, !- Handle
  ,                                       !- Do Zone Sizing Calculation
  ,                                       !- Do System Sizing Calculation
  ,                                       !- Do Plant Sizing Calculation
  No;                                     !- Run Simulation for Sizing Periods

OS:Timestep,
  {f2bc63ff-7563-485a-83c8-c3326bb8d8b7}, !- Handle
  1;                                      !- Number of Timesteps per Hour

OS:ShadowCalculation,
  {26221d2c-6d92-425d-9c92-eae8a4758702}, !- Handle
  PolygonClipping,                        !- Shading Calculation Method
  ,                                       !- Shading Calculation Update Frequency Method
  20,                                     !- Shading Calculation Update Frequency
  200,                                    !- Maximum Figures in Shadow Overlap Calculations
  ,                                       !- Polygon Clipping Algorithm
  512,                                    !- Pixel Counting Resolution
  ,                                       !- Sky Diffuse Modeling Algorithm
  No,                                     !- Output External Shading Calculation Results
  No,                                     !- Disable Self-Shading Within Shading Zone Groups
  No;                                     !- Disable Self-Shading From Shading Zone Groups to Other Zones

OS:SurfaceConvectionAlgorithm:Outside,
  {e857d1ad-c40b-45b4-8263-aed3b87d2822}, !- Handle
  DOE-2;                                  !- Algorithm

OS:SurfaceConvectionAlgorithm:Inside,
  {bd3f5966-c944-4149-9559-e4e1400edeb7}, !- Handle
  TARP;                                   !- Algorithm

OS:ZoneCapacitanceMultiplier:ResearchSpecial,
  {936476d2-eac5-4b6e-9197-1fee2bcd8784}, !- Handle
  7,                                      !- Temperature Capacity Multiplier
  15,                                     !- Humidity Capacity Multiplier
  ;                                       !- Carbon Dioxide Capacity Multiplier

OS:ConvergenceLimits,
  {7b4de5e6-8bc9-44dc-a94c-fc03c6c24a55}, !- Handle
  0;                                      !- Minimum System Timestep {minutes}

OS:RunPeriod,
  {cd7fbbc9-2c77-40f3-b3aa-37e5e492c300}, !- Handle
  Run Period 1,                           !- Name
  1,                                      !- Begin Month
  1,                                      !- Begin Day of Month
  12,                                     !- End Month
  31,                                     !- End Day of Month
  ,                                       !- Use Weather File Holidays and Special Days
  ,                                       !- Use Weather File Daylight Saving Period
  ,                                       !- Apply Weekend Holiday Rule
  ,                                       !- Use Weather File Rain Indicators
  ,                                       !- Use Weather File Snow Indicators
  ;                                       !- Number of Times Runperiod to be Repeated

OS:PerformancePrecisionTradeoffs,
  {20fb3ba2-2e8f-4ba3-bde9-ed8e650d29a9}, !- Handle
  ,                                       !- Use Coil Direct Solutions
  CarrollMRT;                             !- Zone Radiant Exchange Algorithm

OS:WeatherFile,
  {035ee37e-27de-4805-abd7-97da59686ff4}, !- Handle
  Buffalo Niagara Intl Ap,                !- City
  NY,                                     !- State Province Region
  USA,                                    !- Country
  TMY3,                                   !- Data Source
  725280,                                 !- WMO Number
  42.93,                                  !- Latitude {deg}
  -78.73,                                 !- Longitude {deg}
  -5,                                     !- Time Zone {hr}
  215,                                    !- Elevation {m}
  /Users/nmoore/github/urbanopt-example-geojson-project/example_project/weather/USA_NY_Buffalo-Greater.Buffalo.Intl.AP.725280_TMY3.epw, !- Url
  6B50E0FF,                               !- Checksum
  ,                                       !- Start Date Actual Year
  Sunday;                                 !- Start Day of Week

OS:YearDescription,
  {1a258e51-68f3-4143-bbe9-0213d8c21961}, !- Handle
  2007,                                   !- Calendar Year
  ,                                       !- Day of Week for Start Day
  ;                                       !- Is Leap Year

OS:Site,
  {c78509d6-4fa8-489a-b078-8838a15992d6}, !- Handle
  Buffalo Niagara Intl Ap_NY,             !- Name
  42.93,                                  !- Latitude {deg}
  -78.73,                                 !- Longitude {deg}
  -5,                                     !- Time Zone {hr}
  215,                                    !- Elevation {m}
  Suburbs,                                !- Terrain
  Yes;                                    !- Keep Site Location Information

OS:RunPeriodControl:DaylightSavingTime,
  {b887af9f-d213-409b-b072-8f101c45d8e9}, !- Handle
  Mar 12,                                 !- Start Date
  Nov 5;                                  !- End Date

OS:Site:GroundTemperature:Shallow,
  {ed0a0cc0-43b7-4e9c-ae6d-1aab3783aabc}, !- Handle
  4.30207395723828,                       !- January Surface Ground Temperature {C}
  2.29327249652502,                       !- February Surface Ground Temperature {C}
  2.13240047156047,                       !- March Surface Ground Temperature {C}
  3.08567940719286,                       !- April Surface Ground Temperature {C}
  6.91256312497526,                       !- May Surface Ground Temperature {C}
  10.7216195949507,                       !- June Surface Ground Temperature {C}
  14.0238679822574,                       !- July Surface Ground Temperature {C}
  16.1157611184724,                       !- August Surface Ground Temperature {C}
  16.2934789303462,                       !- September Surface Ground Temperature {C}
  14.5920754632847,                       !- October Surface Ground Temperature {C}
  11.374036348653,                        !- November Surface Ground Temperature {C}
  7.68182621661674;                       !- December Surface Ground Temperature {C}

OS:ThermalZone,
  {65981f64-8d2e-4d27-983d-da7dddb24360}, !- Handle
  conditioned space,                      !- Name
  1,                                      !- Multiplier
  ,                                       !- Ceiling Height {m}
  692.06373070848,                        !- Volume {m3}
  ,                                       !- Floor Area {m2}
  ,                                       !- Zone Inside Convection Algorithm
  ,                                       !- Zone Outside Convection Algorithm
  ,                                       !- Zone Conditioning Equipment List Name
  {d151ad29-ec99-4f0c-b5c5-0588985d5a48}, !- Zone Air Inlet Port List
  {27b873f2-f487-487c-992c-26276d4d4296}, !- Zone Air Exhaust Port List
  {dfa4e007-6203-402d-bff0-e93fc2511fed}, !- Zone Air Node Name
  {ccd25e8f-ca34-4eb0-a337-e32bf81094a4}, !- Zone Return Air Port List
  ,                                       !- Primary Daylighting Control Name
  ,                                       !- Fraction of Zone Controlled by Primary Daylighting Control
  ,                                       !- Secondary Daylighting Control Name
  ,                                       !- Fraction of Zone Controlled by Secondary Daylighting Control
  ,                                       !- Illuminance Map Name
  ,                                       !- Group Rendering Name
  {50055396-fabf-4f0c-83c0-9a53c36f3111}, !- Thermostat Name
  No;                                     !- Use Ideal Air Loads

OS:Node,
  {0bc2d191-6a95-4f77-ab1b-56ca666e4156}, !- Handle
  Node 1,                                 !- Name
  {dfa4e007-6203-402d-bff0-e93fc2511fed}, !- Inlet Port
  ;                                       !- Outlet Port

OS:Connection,
  {dfa4e007-6203-402d-bff0-e93fc2511fed}, !- Handle
  {65981f64-8d2e-4d27-983d-da7dddb24360}, !- Source Object
  11,                                     !- Outlet Port
  {0bc2d191-6a95-4f77-ab1b-56ca666e4156}, !- Target Object
  2;                                      !- Inlet Port

OS:PortList,
  {d151ad29-ec99-4f0c-b5c5-0588985d5a48}, !- Handle
  {65981f64-8d2e-4d27-983d-da7dddb24360}, !- HVAC Component
  {e490d026-a947-4536-969b-207cbbe47e48}; !- Port 1

OS:PortList,
  {27b873f2-f487-487c-992c-26276d4d4296}, !- Handle
  {65981f64-8d2e-4d27-983d-da7dddb24360}; !- HVAC Component

OS:PortList,
  {ccd25e8f-ca34-4eb0-a337-e32bf81094a4}, !- Handle
  {65981f64-8d2e-4d27-983d-da7dddb24360}, !- HVAC Component
  {24ac21b7-a7fb-4316-80ab-2081733c5abc}; !- Port 1

OS:Sizing:Zone,
  {99e8e819-0462-48c0-b171-5872b4b96c32}, !- Handle
  {65981f64-8d2e-4d27-983d-da7dddb24360}, !- Zone or ZoneList Name
  SupplyAirTemperature,                   !- Zone Cooling Design Supply Air Temperature Input Method
  14,                                     !- Zone Cooling Design Supply Air Temperature {C}
  11.11,                                  !- Zone Cooling Design Supply Air Temperature Difference {deltaC}
  SupplyAirTemperature,                   !- Zone Heating Design Supply Air Temperature Input Method
  40,                                     !- Zone Heating Design Supply Air Temperature {C}
  11.11,                                  !- Zone Heating Design Supply Air Temperature Difference {deltaC}
  0.0085,                                 !- Zone Cooling Design Supply Air Humidity Ratio {kg-H2O/kg-air}
  0.008,                                  !- Zone Heating Design Supply Air Humidity Ratio {kg-H2O/kg-air}
  ,                                       !- Zone Heating Sizing Factor
  ,                                       !- Zone Cooling Sizing Factor
  DesignDay,                              !- Cooling Design Air Flow Method
  ,                                       !- Cooling Design Air Flow Rate {m3/s}
  ,                                       !- Cooling Minimum Air Flow per Zone Floor Area {m3/s-m2}
  ,                                       !- Cooling Minimum Air Flow {m3/s}
  ,                                       !- Cooling Minimum Air Flow Fraction
  DesignDay,                              !- Heating Design Air Flow Method
  ,                                       !- Heating Design Air Flow Rate {m3/s}
  ,                                       !- Heating Maximum Air Flow per Zone Floor Area {m3/s-m2}
  ,                                       !- Heating Maximum Air Flow {m3/s}
  ,                                       !- Heating Maximum Air Flow Fraction
  No,                                     !- Account for Dedicated Outdoor Air System
  NeutralSupplyAir,                       !- Dedicated Outdoor Air System Control Strategy
  autosize,                               !- Dedicated Outdoor Air Low Setpoint Temperature for Design {C}
  autosize,                               !- Dedicated Outdoor Air High Setpoint Temperature for Design {C}
  Sensible Load Only No Latent Load,      !- Zone Load Sizing Method
  HumidityRatioDifference,                !- Zone Latent Cooling Design Supply Air Humidity Ratio Input Method
  ,                                       !- Zone Dehumidification Design Supply Air Humidity Ratio {kgWater/kgDryAir}
  0.005,                                  !- Zone Cooling Design Supply Air Humidity Ratio Difference {kgWater/kgDryAir}
  HumidityRatioDifference,                !- Zone Latent Heating Design Supply Air Humidity Ratio Input Method
  ,                                       !- Zone Humidification Design Supply Air Humidity Ratio {kgWater/kgDryAir}
  0.005,                                  !- Zone Humidification Design Supply Air Humidity Ratio Difference {kgWater/kgDryAir}
  ,                                       !- Zone Humidistat Dehumidification Set Point Schedule Name
  ,                                       !- Zone Humidistat Humidification Set Point Schedule Name
  ,                                       !- Design Zone Air Distribution Effectiveness in Cooling Mode
  ,                                       !- Design Zone Air Distribution Effectiveness in Heating Mode
  ,                                       !- Design Zone Secondary Recirculation Fraction {dimensionless}
  ,                                       !- Design Minimum Zone Ventilation Efficiency {dimensionless}
  Coincident;                             !- Sizing Option

OS:ZoneHVAC:EquipmentList,
  {fc61c8dd-b8ef-4ccf-bfc6-65a1a737a4ea}, !- Handle
  Zone HVAC Equipment List 1,             !- Name
  {65981f64-8d2e-4d27-983d-da7dddb24360}, !- Thermal Zone
  ,                                       !- Load Distribution Scheme
  {cec5b088-af1f-465e-8faa-7bde509c7cad}, !- Zone Equipment 1
  1,                                      !- Zone Equipment Cooling Sequence 1
  1,                                      !- Zone Equipment Heating or No-Load Sequence 1
  {636918aa-6915-46bd-b281-b636da7db962}, !- Zone Equipment Sequential Cooling Fraction Schedule Name 1
  {82814bf9-f813-480b-a5c0-d2cbaed6a58d}; !- Zone Equipment Sequential Heating Fraction Schedule Name 1

OS:AdditionalProperties,
  {ba6e22e1-8bbd-4f25-95d5-cc6117204b85}, !- Handle
  {65981f64-8d2e-4d27-983d-da7dddb24360}, !- Object Name
  ObjectType,                             !- Feature Name 1
  String,                                 !- Feature Data Type 1
  conditioned space;                      !- Feature Value 1

OS:Space,
  {09dce16c-fdb2-4e6a-b68b-40ea33e59b11}, !- Handle
  conditioned space 1,                    !- Name
  ,                                       !- Space Type Name
  ,                                       !- Default Construction Set Name
  ,                                       !- Default Schedule Set Name
  ,                                       !- Direction of Relative North {deg}
  ,                                       !- X Origin {m}
  ,                                       !- Y Origin {m}
  ,                                       !- Z Origin {m}
  ,                                       !- Building Story Name
  {65981f64-8d2e-4d27-983d-da7dddb24360}, !- Thermal Zone Name
  ,                                       !- Part of Total Floor Area
  ,                                       !- Design Specification Outdoor Air Object Name
  ,                                       !- Building Unit Name
  692.06373070848;                        !- Volume {m3}

OS:Schedule:Ruleset,
  {957ad88f-eb3d-4d61-9904-11dfdfe72986}, !- Handle
  heating setpoint,                       !- Name
  {43e0d8d7-3821-4671-9489-66aa14b52161}, !- Schedule Type Limits Name
  {2f22119f-dbd6-49be-a990-473c4232aac3}; !- Default Day Schedule Name

OS:Schedule:Day,
  {2f22119f-dbd6-49be-a990-473c4232aac3}, !- Handle
  heating setpoint default day,           !- Name
  {43e0d8d7-3821-4671-9489-66aa14b52161}, !- Schedule Type Limits Name
  ,                                       !- Interpolate to Timestep
  24,                                     !- Hour 1
  0,                                      !- Minute 1
  0;                                      !- Value Until Time 1

OS:Schedule:Rule,
  {332dbf7b-7e74-4c8e-b0fc-4e80c965c053}, !- Handle
  heating setpoint allday rule,           !- Name
  {957ad88f-eb3d-4d61-9904-11dfdfe72986}, !- Schedule Ruleset Name
  0,                                      !- Rule Order
  {d941831f-a8ee-4989-b3ba-e11506bee5cd}, !- Day Schedule Name
  Yes,                                    !- Apply Sunday
  Yes,                                    !- Apply Monday
  Yes,                                    !- Apply Tuesday
  Yes,                                    !- Apply Wednesday
  Yes,                                    !- Apply Thursday
  Yes,                                    !- Apply Friday
  Yes,                                    !- Apply Saturday
  DateRange,                              !- Date Specification Type
  1,                                      !- Start Month
  1,                                      !- Start Day
  12,                                     !- End Month
  31;                                     !- End Day

OS:Schedule:Day,
  {d941831f-a8ee-4989-b3ba-e11506bee5cd}, !- Handle
  heating setpoint day,                   !- Name
  {43e0d8d7-3821-4671-9489-66aa14b52161}, !- Schedule Type Limits Name
  ,                                       !- Interpolate to Timestep
  24,                                     !- Hour 1
  0,                                      !- Minute 1
  20;                                     !- Value Until Time 1

OS:Schedule:Ruleset,
  {7bfa4776-7859-4b82-9b7b-c70c0268ec3a}, !- Handle
  cooling setpoint,                       !- Name
  {43e0d8d7-3821-4671-9489-66aa14b52161}, !- Schedule Type Limits Name
  {f6d4cc02-d410-406e-a922-288290d2c8e1}; !- Default Day Schedule Name

OS:Schedule:Day,
  {f6d4cc02-d410-406e-a922-288290d2c8e1}, !- Handle
  cooling setpoint default day,           !- Name
  {43e0d8d7-3821-4671-9489-66aa14b52161}, !- Schedule Type Limits Name
  ,                                       !- Interpolate to Timestep
  24,                                     !- Hour 1
  0,                                      !- Minute 1
  0;                                      !- Value Until Time 1

OS:Schedule:Rule,
  {e1581375-5bd6-46b8-aaa1-af781bd7df7e}, !- Handle
  cooling setpoint allday rule,           !- Name
  {7bfa4776-7859-4b82-9b7b-c70c0268ec3a}, !- Schedule Ruleset Name
  0,                                      !- Rule Order
  {1eb87325-0a4f-4bf1-bb1d-9d434385c2b1}, !- Day Schedule Name
  Yes,                                    !- Apply Sunday
  Yes,                                    !- Apply Monday
  Yes,                                    !- Apply Tuesday
  Yes,                                    !- Apply Wednesday
  Yes,                                    !- Apply Thursday
  Yes,                                    !- Apply Friday
  Yes,                                    !- Apply Saturday
  DateRange,                              !- Date Specification Type
  1,                                      !- Start Month
  1,                                      !- Start Day
  12,                                     !- End Month
  31;                                     !- End Day

OS:Schedule:Day,
  {1eb87325-0a4f-4bf1-bb1d-9d434385c2b1}, !- Handle
  cooling setpoint day,                   !- Name
  {43e0d8d7-3821-4671-9489-66aa14b52161}, !- Schedule Type Limits Name
  ,                                       !- Interpolate to Timestep
  24,                                     !- Hour 1
  0,                                      !- Minute 1
  25.5555555555556;                       !- Value Until Time 1

OS:ThermostatSetpoint:DualSetpoint,
  {50055396-fabf-4f0c-83c0-9a53c36f3111}, !- Handle
  conditioned space temperature setpoint, !- Name
  {957ad88f-eb3d-4d61-9904-11dfdfe72986}, !- Heating Setpoint Temperature Schedule Name
  {7bfa4776-7859-4b82-9b7b-c70c0268ec3a}, !- Cooling Setpoint Temperature Schedule Name
  0;                                      !- Temperature Difference Between Cutout And Setpoint {deltaC}

OS:ScheduleTypeLimits,
  {43e0d8d7-3821-4671-9489-66aa14b52161}, !- Handle
  Temperature,                            !- Name
  ,                                       !- Lower Limit Value
  ,                                       !- Upper Limit Value
  Continuous,                             !- Numeric Type
  Temperature;                            !- Unit Type

OS:Surface,
  {9d5377e5-09e7-4876-9deb-f4dc55218115}, !- Handle
  Roof1,                                  !- Name
  RoofCeiling,                            !- Surface Type
  {61c5165f-12c8-4491-8325-2ac243f58ed0}, !- Construction Name
  {a846e305-a339-48bb-b26d-da5c58e7c737}, !- Space Name
  Outdoors,                               !- Outside Boundary Condition
  ,                                       !- Outside Boundary Condition Object
  SunExposed,                             !- Sun Exposure
  WindExposed,                            !- Wind Exposure
  ,                                       !- View Factor to Ground
  ,                                       !- Number of Vertices
  -26.9347048849634, 58.0557891618865, 2.4384, !- X,Y,Z Vertex 1 {m}
  -26.9347048849634, 46.7895631136661, 8.0715130241102, !- X,Y,Z Vertex 2 {m}
  -14.3386812381136, 46.7895631136661, 8.0715130241102, !- X,Y,Z Vertex 3 {m}
  -14.3386812381136, 58.0557891618865, 2.4384; !- X,Y,Z Vertex 4 {m}

OS:AdditionalProperties,
  {9a020638-1848-40db-8281-65ff6890e00d}, !- Handle
  {9d5377e5-09e7-4876-9deb-f4dc55218115}, !- Object Name
  Length,                                 !- Feature Name 1
  Double,                                 !- Feature Data Type 1
  41.325536899113608,                     !- Feature Value 1
  Width,                                  !- Feature Name 2
  Double,                                 !- Feature Data Type 2
  41.325536899113601,                     !- Feature Value 2
  Azimuth,                                !- Feature Name 3
  Integer,                                !- Feature Data Type 3
  0,                                      !- Feature Value 3
  Tilt,                                   !- Feature Name 4
  Double,                                 !- Feature Data Type 4
  0.5,                                    !- Feature Value 4
  SurfaceType,                            !- Feature Name 5
  String,                                 !- Feature Data Type 5
  Roof;                                   !- Feature Value 5

OS:ThermalZone,
  {fb660745-ab27-4884-a44e-41b141b6c0d3}, !- Handle
  attic - vented,                         !- Name
  1,                                      !- Multiplier
  ,                                       !- Ceiling Height {m}
  356.389957095237,                       !- Volume {m3}
  ,                                       !- Floor Area {m2}
  ,                                       !- Zone Inside Convection Algorithm
  ,                                       !- Zone Outside Convection Algorithm
  ,                                       !- Zone Conditioning Equipment List Name
  {d83fc448-1aea-4fe8-ba81-87ec54627e76}, !- Zone Air Inlet Port List
  {391639f5-8562-41f3-80bb-a1c881868471}, !- Zone Air Exhaust Port List
  {d6f36265-7350-468c-81ef-7684db139666}, !- Zone Air Node Name
  {7cb5a593-0d90-43cb-bca3-5f9c86d1fd28}, !- Zone Return Air Port List
  ,                                       !- Primary Daylighting Control Name
  ,                                       !- Fraction of Zone Controlled by Primary Daylighting Control
  ,                                       !- Secondary Daylighting Control Name
  ,                                       !- Fraction of Zone Controlled by Secondary Daylighting Control
  ,                                       !- Illuminance Map Name
  ,                                       !- Group Rendering Name
  ,                                       !- Thermostat Name
  No;                                     !- Use Ideal Air Loads

OS:Node,
  {1c698990-107d-4a02-b2f5-0544b77990e9}, !- Handle
  Node 2,                                 !- Name
  {d6f36265-7350-468c-81ef-7684db139666}, !- Inlet Port
  ;                                       !- Outlet Port

OS:Connection,
  {d6f36265-7350-468c-81ef-7684db139666}, !- Handle
  {fb660745-ab27-4884-a44e-41b141b6c0d3}, !- Source Object
  11,                                     !- Outlet Port
  {1c698990-107d-4a02-b2f5-0544b77990e9}, !- Target Object
  2;                                      !- Inlet Port

OS:PortList,
  {d83fc448-1aea-4fe8-ba81-87ec54627e76}, !- Handle
  {fb660745-ab27-4884-a44e-41b141b6c0d3}; !- HVAC Component

OS:PortList,
  {391639f5-8562-41f3-80bb-a1c881868471}, !- Handle
  {fb660745-ab27-4884-a44e-41b141b6c0d3}; !- HVAC Component

OS:PortList,
  {7cb5a593-0d90-43cb-bca3-5f9c86d1fd28}, !- Handle
  {fb660745-ab27-4884-a44e-41b141b6c0d3}; !- HVAC Component

OS:Sizing:Zone,
  {093bf2f5-e8b5-49aa-9924-b89ee2f58e02}, !- Handle
  {fb660745-ab27-4884-a44e-41b141b6c0d3}, !- Zone or ZoneList Name
  SupplyAirTemperature,                   !- Zone Cooling Design Supply Air Temperature Input Method
  14,                                     !- Zone Cooling Design Supply Air Temperature {C}
  11.11,                                  !- Zone Cooling Design Supply Air Temperature Difference {deltaC}
  SupplyAirTemperature,                   !- Zone Heating Design Supply Air Temperature Input Method
  40,                                     !- Zone Heating Design Supply Air Temperature {C}
  11.11,                                  !- Zone Heating Design Supply Air Temperature Difference {deltaC}
  0.0085,                                 !- Zone Cooling Design Supply Air Humidity Ratio {kg-H2O/kg-air}
  0.008,                                  !- Zone Heating Design Supply Air Humidity Ratio {kg-H2O/kg-air}
  ,                                       !- Zone Heating Sizing Factor
  ,                                       !- Zone Cooling Sizing Factor
  DesignDay,                              !- Cooling Design Air Flow Method
  ,                                       !- Cooling Design Air Flow Rate {m3/s}
  ,                                       !- Cooling Minimum Air Flow per Zone Floor Area {m3/s-m2}
  ,                                       !- Cooling Minimum Air Flow {m3/s}
  ,                                       !- Cooling Minimum Air Flow Fraction
  DesignDay,                              !- Heating Design Air Flow Method
  ,                                       !- Heating Design Air Flow Rate {m3/s}
  ,                                       !- Heating Maximum Air Flow per Zone Floor Area {m3/s-m2}
  ,                                       !- Heating Maximum Air Flow {m3/s}
  ,                                       !- Heating Maximum Air Flow Fraction
  No,                                     !- Account for Dedicated Outdoor Air System
  NeutralSupplyAir,                       !- Dedicated Outdoor Air System Control Strategy
  autosize,                               !- Dedicated Outdoor Air Low Setpoint Temperature for Design {C}
  autosize,                               !- Dedicated Outdoor Air High Setpoint Temperature for Design {C}
  Sensible Load Only No Latent Load,      !- Zone Load Sizing Method
  HumidityRatioDifference,                !- Zone Latent Cooling Design Supply Air Humidity Ratio Input Method
  ,                                       !- Zone Dehumidification Design Supply Air Humidity Ratio {kgWater/kgDryAir}
  0.005,                                  !- Zone Cooling Design Supply Air Humidity Ratio Difference {kgWater/kgDryAir}
  HumidityRatioDifference,                !- Zone Latent Heating Design Supply Air Humidity Ratio Input Method
  ,                                       !- Zone Humidification Design Supply Air Humidity Ratio {kgWater/kgDryAir}
  0.005,                                  !- Zone Humidification Design Supply Air Humidity Ratio Difference {kgWater/kgDryAir}
  ,                                       !- Zone Humidistat Dehumidification Set Point Schedule Name
  ,                                       !- Zone Humidistat Humidification Set Point Schedule Name
  ,                                       !- Design Zone Air Distribution Effectiveness in Cooling Mode
  ,                                       !- Design Zone Air Distribution Effectiveness in Heating Mode
  ,                                       !- Design Zone Secondary Recirculation Fraction {dimensionless}
  ,                                       !- Design Minimum Zone Ventilation Efficiency {dimensionless}
  Coincident;                             !- Sizing Option

OS:ZoneHVAC:EquipmentList,
  {5e3fcb22-4f0b-4153-b0fd-6943c6e0b7ad}, !- Handle
  Zone HVAC Equipment List 2,             !- Name
  {fb660745-ab27-4884-a44e-41b141b6c0d3}; !- Thermal Zone

OS:AdditionalProperties,
  {431eeae8-f004-45f7-bb89-89faf6043a97}, !- Handle
  {fb660745-ab27-4884-a44e-41b141b6c0d3}, !- Object Name
  ObjectType,                             !- Feature Name 1
  String,                                 !- Feature Data Type 1
  attic - vented;                         !- Feature Value 1

OS:Space,
  {a846e305-a339-48bb-b26d-da5c58e7c737}, !- Handle
  attic - vented 1,                       !- Name
  ,                                       !- Space Type Name
  ,                                       !- Default Construction Set Name
  ,                                       !- Default Schedule Set Name
  ,                                       !- Direction of Relative North {deg}
  ,                                       !- X Origin {m}
  ,                                       !- Y Origin {m}
  ,                                       !- Z Origin {m}
  ,                                       !- Building Story Name
  {fb660745-ab27-4884-a44e-41b141b6c0d3}, !- Thermal Zone Name
  ,                                       !- Part of Total Floor Area
  ,                                       !- Design Specification Outdoor Air Object Name
  ,                                       !- Building Unit Name
  356.389957095237;                       !- Volume {m3}

OS:Material,
  {ef64eb15-9ce5-4f81-b126-a59416bd060a}, !- Handle
  asphalt or fiberglass shingles,         !- Name
  Rough,                                  !- Roughness
  0.00635,                                !- Thickness {m}
  0.162714,                               !- Conductivity {W/m-K}
  1121.4,                                 !- Density {kg/m3}
  1465.45,                                !- Specific Heat {J/kg-K}
  0.9,                                    !- Thermal Absorptance
  0.85,                                   !- Solar Absorptance