
OS:Version,
  {68ff806b-4ccc-429b-8082-7b6753e8f397}, !- Handle
  3.10.0;                                 !- Version Identifier

OS:SimulationControl,
  {67136d3f-adf0-4534-b864-c4eaead41185}, !- Handle
  ,                                       !- Do Zone Sizing Calculation
  ,                                       !- Do System Sizing Calculation
  ,                                       !- Do Plant Sizing Calculation
  No;                                     !- Run Simulation for Sizing Periods

OS:Timestep,
  {72108c06-24cb-4233-afe1-23a38ea9683b}, !- Handle
  1;                                      !- Number of Timesteps per Hour

OS:ShadowCalculation,
  {b7c2a153-a0fc-40d1-acfa-88e1555af5cc}, !- Handle
  PolygonClipping,                        !- Shading Calculation Method
  ,                                       !- Shading Calculation Update Frequency Method
  20,                                     !- Shading Calculation Update Frequency
  200,                                    !- Maximum Figures in Shadow Overlap Calculations
  ,                                       !- Polygon Clipping Algorithm
  512,                                    !- Pixel Counting Resolution
  ,                                       !- Sky Diffuse Modeling Algorithm
  No,                                     !- Output External Shading Calculation Results
  No,                                     !- Disable Self-Shading Within Shading Zone Groups
  No;                                     !- Disable Self-Shading From Shading Zone Groups to Other Zones

OS:SurfaceConvectionAlgorithm:Outside,
  {d1f15a85-dcd4-4d75-a47e-62067be1a45e}, !- Handle
  DOE-2;                                  !- Algorithm

OS:SurfaceConvectionAlgorithm:Inside,
  {86417f31-61fb-4e44-83ca-f524777f2020}, !- Handle
  TARP;                                   !- Algorithm

OS:ZoneCapacitanceMultiplier:ResearchSpecial,
  {08a3299c-26f6-4ba5-97f2-a596f8064d70}, !- Handle
  7,                                      !- Temperature Capacity Multiplier
  15,                                     !- Humidity Capacity Multiplier
  ;                                       !- Carbon Dioxide Capacity Multiplier

OS:ConvergenceLimits,
  {64ed187d-c23f-405a-b4f7-819d9e80f11f}, !- Handle
  0;                                      !- Minimum System Timestep {minutes}

OS:RunPeriod,
  {8ea7a6e2-5090-4720-9e0b-f80fe197645d}, !- Handle
  Run Period 1,                           !- Name
  1,                                      !- Begin Month
  1,                                      !- Begin Day of Month
  12,                                     !- End Month
  31,                                     !- End Day of Month
  ,                                       !- Use Weather File Holidays and Special Days
  ,                                       !- Use Weather File Daylight Saving Period
  ,                                       !- Apply Weekend Holiday Rule
  ,                                       !- Use Weather File Rain Indicators
  ,                                       !- Use Weather File Snow Indicators
  ;                                       !- Number of Times Runperiod to be Repeated

OS:PerformancePrecisionTradeoffs,
  {651cece8-d3b2-467d-b477-8ef1462fe2a7}, !- Handle
  ,                                       !- Use Coil Direct Solutions
  CarrollMRT;                             !- Zone Radiant Exchange Algorithm

OS:WeatherFile,
  {539c3be3-e36f-45f1-92f6-df7265edf1d4}, !- Handle
  Buffalo Niagara Intl Ap,                !- City
  NY,                                     !- State Province Region
  USA,                                    !- Country
  TMY3,                                   !- Data Source
  725280,                                 !- WMO Number
  42.93,                                  !- Latitude {deg}
  -78.73,                                 !- Longitude {deg}
  -5,                                     !- Time Zone {hr}
  215,                                    !- Elevation {m}
  /Users/nmoore/github/urbanopt-example-geojson-project/example_project/weather/USA_NY_Buffalo-Greater.Buffalo.Intl.AP.725280_TMY3.epw, !- Url
  6B50E0FF,                               !- Checksum
  ,                                       !- Start Date Actual Year
  Sunday;                                 !- Start Day of Week

OS:YearDescription,
  {1a5674d6-0331-49ab-832c-82510e54e8d6}, !- Handle
  2007,                                   !- Calendar Year
  ,                                       !- Day of Week for Start Day
  ;                                       !- Is Leap Year

OS:Site,
  {9a788cf9-4621-4d7c-8829-fa581c4a05d2}, !- Handle
  Buffalo Niagara Intl Ap_NY,             !- Name
  42.93,                                  !- Latitude {deg}
  -78.73,                                 !- Longitude {deg}
  -5,                                     !- Time Zone {hr}
  215,                                    !- Elevation {m}
  Suburbs,                                !- Terrain
  Yes;                                    !- Keep Site Location Information

OS:RunPeriodControl:DaylightSavingTime,
  {1922f225-2ddb-4bfa-9e48-c87e2512d6b8}, !- Handle
  Mar 12,                                 !- Start Date
  Nov 5;                                  !- End Date

OS:Site:GroundTemperature:Shallow,
  {60b12b53-1912-459d-be5c-75d1a60beedc}, !- Handle
  4.30207395723828,                       !- January Surface Ground Temperature {C}
  2.29327249652502,                       !- February Surface Ground Temperature {C}
  2.13240047156047,                       !- March Surface Ground Temperature {C}
  3.08567940719286,                       !- April Surface Ground Temperature {C}
  6.91256312497526,                       !- May Surface Ground Temperature {C}
  10.7216195949507,                       !- June Surface Ground Temperature {C}
  14.0238679822574,                       !- July Surface Ground Temperature {C}
  16.1157611184724,                       !- August Surface Ground Temperature {C}
  16.2934789303462,                       !- September Surface Ground Temperature {C}
  14.5920754632847,                       !- October Surface Ground Temperature {C}
  11.374036348653,                        !- November Surface Ground Temperature {C}
  7.68182621661674;                       !- December Surface Ground Temperature {C}

OS:ThermalZone,
  {72485ab1-508f-433e-ae4d-e94e39e14567}, !- Handle
  conditioned space,                      !- Name
  1,                                      !- Multiplier
  ,                                       !- Ceiling Height {m}
  346.03186535424,                        !- Volume {m3}
  ,                                       !- Floor Area {m2}
  ,                                       !- Zone Inside Convection Algorithm
  ,                                       !- Zone Outside Convection Algorithm
  ,                                       !- Zone Conditioning Equipment List Name
  {33d10b49-c9ae-48cb-9560-1020c1c80bdf}, !- Zone Air Inlet Port List
  {f23de916-d376-4cff-b13a-962dd24cc032}, !- Zone Air Exhaust Port List
  {ea626a86-75e6-48c7-8880-9f047d0252ed}, !- Zone Air Node Name
  {609e113f-9705-403d-920d-4153edd9bdea}, !- Zone Return Air Port List
  ,                                       !- Primary Daylighting Control Name
  ,                                       !- Fraction of Zone Controlled by Primary Daylighting Control
  ,                                       !- Secondary Daylighting Control Name
  ,                                       !- Fraction of Zone Controlled by Secondary Daylighting Control
  ,                                       !- Illuminance Map Name
  ,                                       !- Group Rendering Name
  {9e708025-f73c-4d3e-9e7c-a8787b57b87f}, !- Thermostat Name
  No;                                     !- Use Ideal Air Loads

OS:Node,
  {53259576-354c-4d1d-9af6-4756c2f0ad9d}, !- Handle
  Node 1,                                 !- Name
  {ea626a86-75e6-48c7-8880-9f047d0252ed}, !- Inlet Port
  ;                                       !- Outlet Port

OS:Connection,
  {ea626a86-75e6-48c7-8880-9f047d0252ed}, !- Handle
  {72485ab1-508f-433e-ae4d-e94e39e14567}, !- Source Object
  11,                                     !- Outlet Port
  {53259576-354c-4d1d-9af6-4756c2f0ad9d}, !- Target Object
  2;                                      !- Inlet Port

OS:PortList,
  {33d10b49-c9ae-48cb-9560-1020c1c80bdf}, !- Handle
  {72485ab1-508f-433e-ae4d-e94e39e14567}, !- HVAC Component
  {19e255a3-6f4c-46a4-9048-4915cd64e533}; !- Port 1

OS:PortList,
  {f23de916-d376-4cff-b13a-962dd24cc032}, !- Handle
  {72485ab1-508f-433e-ae4d-e94e39e14567}; !- HVAC Component

OS:PortList,
  {609e113f-9705-403d-920d-4153edd9bdea}, !- Handle
  {72485ab1-508f-433e-ae4d-e94e39e14567}, !- HVAC Component
  {53994b35-2585-4993-960a-75303f104635}; !- Port 1

OS:Sizing:Zone,
  {a2dc754a-b197-435c-a4ec-460dfc610f17}, !- Handle
  {72485ab1-508f-433e-ae4d-e94e39e14567}, !- Zone or ZoneList Name
  SupplyAirTemperature,                   !- Zone Cooling Design Supply Air Temperature Input Method
  14,                                     !- Zone Cooling Design Supply Air Temperature {C}
  11.11,                                  !- Zone Cooling Design Supply Air Temperature Difference {deltaC}
  SupplyAirTemperature,                   !- Zone Heating Design Supply Air Temperature Input Method
  40,                                     !- Zone Heating Design Supply Air Temperature {C}
  11.11,                                  !- Zone Heating Design Supply Air Temperature Difference {deltaC}
  0.0085,                                 !- Zone Cooling Design Supply Air Humidity Ratio {kg-H2O/kg-air}
  0.008,                                  !- Zone Heating Design Supply Air Humidity Ratio {kg-H2O/kg-air}
  ,                                       !- Zone Heating Sizing Factor
  ,                                       !- Zone Cooling Sizing Factor
  DesignDay,                              !- Cooling Design Air Flow Method
  ,                                       !- Cooling Design Air Flow Rate {m3/s}
  ,                                       !- Cooling Minimum Air Flow per Zone Floor Area {m3/s-m2}
  ,                                       !- Cooling Minimum Air Flow {m3/s}
  ,                                       !- Cooling Minimum Air Flow Fraction
  DesignDay,                              !- Heating Design Air Flow Method
  ,                                       !- Heating Design Air Flow Rate {m3/s}
  ,                                       !- Heating Maximum Air Flow per Zone Floor Area {m3/s-m2}
  ,                                       !- Heating Maximum Air Flow {m3/s}
  ,                                       !- Heating Maximum Air Flow Fraction
  No,                                     !- Account for Dedicated Outdoor Air System
  NeutralSupplyAir,                       !- Dedicated Outdoor Air System Control Strategy
  autosize,                               !- Dedicated Outdoor Air Low Setpoint Temperature for Design {C}
  autosize,                               !- Dedicated Outdoor Air High Setpoint Temperature for Design {C}
  Sensible Load Only No Latent Load,      !- Zone Load Sizing Method
  HumidityRatioDifference,                !- Zone Latent Cooling Design Supply Air Humidity Ratio Input Method
  ,                                       !- Zone Dehumidification Design Supply Air Humidity Ratio {kgWater/kgDryAir}
  0.005,                                  !- Zone Cooling Design Supply Air Humidity Ratio Difference {kgWater/kgDryAir}
  HumidityRatioDifference,                !- Zone Latent Heating Design Supply Air Humidity Ratio Input Method
  ,                                       !- Zone Humidification Design Supply Air Humidity Ratio {kgWater/kgDryAir}
  0.005,                                  !- Zone Humidification Design Supply Air Humidity Ratio Difference {kgWater/kgDryAir}
  ,                                       !- Zone Humidistat Dehumidification Set Point Schedule Name
  ,                                       !- Zone Humidistat Humidification Set Point Schedule Name
  ,                                       !- Design Zone Air Distribution Effectiveness in Cooling Mode
  ,                                       !- Design Zone Air Distribution Effectiveness in Heating Mode
  ,                                       !- Design Zone Secondary Recirculation Fraction {dimensionless}
  ,                                       !- Design Minimum Zone Ventilation Efficiency {dimensionless}
  Coincident;                             !- Sizing Option

OS:ZoneHVAC:EquipmentList,
  {21b956fd-f030-41c4-a34c-d0feb745018c}, !- Handle
  Zone HVAC Equipment List 1,             !- Name
  {72485ab1-508f-433e-ae4d-e94e39e14567}, !- Thermal Zone
  ,                                       !- Load Distribution Scheme
  {511d7d41-0648-4463-9508-e38b428a91c5}, !- Zone Equipment 1
  1,                                      !- Zone Equipment Cooling Sequence 1
  1,                                      !- Zone Equipment Heating or No-Load Sequence 1
  {9a8577a4-9015-4ad5-aa8b-92392d774f86}, !- Zone Equipment Sequential Cooling Fraction Schedule Name 1
  {07fd06f6-de37-411b-a013-544a62ac0411}; !- Zone Equipment Sequential Heating Fraction Schedule Name 1

OS:AdditionalProperties,
  {9e03b089-aff9-4f04-a39e-5c0298f2599d}, !- Handle
  {72485ab1-508f-433e-ae4d-e94e39e14567}, !- Object Name
  ObjectType,                             !- Feature Name 1
  String,                                 !- Feature Data Type 1
  conditioned space;                      !- Feature Value 1

OS:Space,
  {08711898-5ef3-4f1c-903f-ef5ad93cb189}, !- Handle
  conditioned space 1,                    !- Name
  ,                                       !- Space Type Name
  ,                                       !- Default Construction Set Name
  ,                                       !- Default Schedule Set Name
  ,                                       !- Direction of Relative North {deg}
  ,                                       !- X Origin {m}
  ,                                       !- Y Origin {m}
  ,                                       !- Z Origin {m}
  ,                                       !- Building Story Name
  {72485ab1-508f-433e-ae4d-e94e39e14567}, !- Thermal Zone Name
  ,                                       !- Part of Total Floor Area
  ,                                       !- Design Specification Outdoor Air Object Name
  ,                                       !- Building Unit Name
  346.03186535424;                        !- Volume {m3}

OS:Schedule:Ruleset,
  {d5ae51ae-9288-4e75-9224-85cf85f59a8d}, !- Handle
  heating setpoint,                       !- Name
  {e501b885-5cea-4061-9f41-80821256687e}, !- Schedule Type Limits Name
  {5f855e82-ed6a-4efc-bd01-4d4edde4b9e9}; !- Default Day Schedule Name

OS:Schedule:Day,
  {5f855e82-ed6a-4efc-bd01-4d4edde4b9e9}, !- Handle
  heating setpoint default day,           !- Name
  {e501b885-5cea-4061-9f41-80821256687e}, !- Schedule Type Limits Name
  ,                                       !- Interpolate to Timestep
  24,                                     !- Hour 1
  0,                                      !- Minute 1
  0;                                      !- Value Until Time 1

OS:Schedule:Rule,
  {b9d5ddd3-c09a-4cdd-aac6-b95806fe9fc7}, !- Handle
  heating setpoint allday rule,           !- Name
  {d5ae51ae-9288-4e75-9224-85cf85f59a8d}, !- Schedule Ruleset Name
  0,                                      !- Rule Order
  {18187203-12d9-4f6a-836d-87816e821aa0}, !- Day Schedule Name
  Yes,                                    !- Apply Sunday
  Yes,                                    !- Apply Monday
  Yes,                                    !- Apply Tuesday
  Yes,                                    !- Apply Wednesday
  Yes,                                    !- Apply Thursday
  Yes,                                    !- Apply Friday
  Yes,                                    !- Apply Saturday
  DateRange,                              !- Date Specification Type
  1,                                      !- Start Month
  1,                                      !- Start Day
  12,                                     !- End Month
  31;                                     !- End Day

OS:Schedule:Day,
  {18187203-12d9-4f6a-836d-87816e821aa0}, !- Handle
  heating setpoint day,                   !- Name
  {e501b885-5cea-4061-9f41-80821256687e}, !- Schedule Type Limits Name
  ,                                       !- Interpolate to Timestep
  24,                                     !- Hour 1
  0,                                      !- Minute 1
  20;                                     !- Value Until Time 1

OS:Schedule:Ruleset,
  {574d7380-54a8-4a31-91bf-d13c825c6255}, !- Handle
  cooling setpoint,                       !- Name
  {e501b885-5cea-4061-9f41-80821256687e}, !- Schedule Type Limits Name
  {f26e2b9b-584f-4a1b-a660-c1920fd4c468}; !- Default Day Schedule Name

OS:Schedule:Day,
  {f26e2b9b-584f-4a1b-a660-c1920fd4c468}, !- Handle
  cooling setpoint default day,           !- Name
  {e501b885-5cea-4061-9f41-80821256687e}, !- Schedule Type Limits Name
  ,                                       !- Interpolate to Timestep
  24,                                     !- Hour 1
  0,                                      !- Minute 1
  0;                                      !- Value Until Time 1

OS:Schedule:Rule,
  {c25f07bd-31ce-46eb-ba46-6ca77d67f56e}, !- Handle
  cooling setpoint allday rule,           !- Name
  {574d7380-54a8-4a31-91bf-d13c825c6255}, !- Schedule Ruleset Name
  0,                                      !- Rule Order
  {161443f7-5855-4778-8756-abfee5360425}, !- Day Schedule Name
  Yes,                                    !- Apply Sunday
  Yes,                                    !- Apply Monday
  Yes,                                    !- Apply Tuesday
  Yes,                                    !- Apply Wednesday
  Yes,                                    !- Apply Thursday
  Yes,                                    !- Apply Friday
  Yes,                                    !- Apply Saturday
  DateRange,                              !- Date Specification Type
  1,                                      !- Start Month
  1,                                      !- Start Day
  12,                                     !- End Month
  31;                                     !- End Day

OS:Schedule:Day,
  {161443f7-5855-4778-8756-abfee5360425}, !- Handle
  cooling setpoint day,                   !- Name
  {e501b885-5cea-4061-9f41-80821256687e}, !- Schedule Type Limits Name
  ,                                       !- Interpolate to Timestep
  24,                                     !- Hour 1
  0,                                      !- Minute 1
  25.5555555555556;                       !- Value Until Time 1

OS:ThermostatSetpoint:DualSetpoint,
  {9e708025-f73c-4d3e-9e7c-a8787b57b87f}, !- Handle
  conditioned space temperature setpoint, !- Name
  {d5ae51ae-9288-4e75-9224-85cf85f59a8d}, !- Heating Setpoint Temperature Schedule Name
  {574d7380-54a8-4a31-91bf-d13c825c6255}, !- Cooling Setpoint Temperature Schedule Name
  0;                                      !- Temperature Difference Between Cutout And Setpoint {deltaC}

OS:ScheduleTypeLimits,
  {e501b885-5cea-4061-9f41-80821256687e}, !- Handle
  Temperature,                            !- Name
  ,                                       !- Lower Limit Value
  ,                                       !- Upper Limit Value
  Continuous,                             !- Numeric Type
  Temperature;                            !- Unit Type

OS:Surface,
  {95dced8c-f232-4dac-b437-96a4bb699d19}, !- Handle
  Wall1,                                  !- Name
  Wall,                                   !- Surface Type
  {61d2264c-f222-43a3-ac83-145b61b39403}, !- Construction Name
  {08711898-5ef3-4f1c-903f-ef5ad93cb189}, !- Space Name
  Outdoors,                               !- Outside Boundary Condition
  ,                                       !- Outside Boundary Condition Object
  SunExposed,                             !- Sun Exposure
  WindExposed,                            !- Wind Exposure
  ,                                       !- View Factor to Ground
  ,                                       !- Number of Vertices
  -4.95193308575712, 6.96193691424288, 0, !- X,Y,Z Vertex 1 {m}
  -4.95193308575712, 6.96193691424288, 2.4384, !- X,Y,Z Vertex 2 {m}
  6.96193691424288, 6.96193691424288, 2.4384, !- X,Y,Z Vertex 3 {m}
  6.96193691424288, 6.96193691424288, 0;  !- X,Y,Z Vertex 4 {m}

OS:AdditionalProperties,
  {27ed5eb7-b23e-45ab-b329-b7467bc471dc}, !- Handle
  {95dced8c-f232-4dac-b437-96a4bb699d19}, !- Object Name
  Length,                                 !- Feature Name 1
  Double,                                 !- Feature Data Type 1
  39.087499999999999,                     !- Feature Value 1
  Azimuth,                                !- Feature Name 2
  Integer,                                !- Feature Data Type 2
  0,                                      !- Feature Value 2
  Tilt,                                   !- Feature Name 3
  Double,                                 !- Feature Data Type 3
  90,                                     !- Feature Value 3
  SurfaceType,                            !- Feature Name 4
  String,                                 !- Feature Data Type 4
  Wall;                                   !- Feature Value 4

OS:Material,
  {a427ec0c-37e6-466e-aff7-cbd9051eadf6}, !- Handle
  wood siding,                            !- Name
  Rough,                                  !- Roughness
  0.0254,                                 !- Thickness {m}
  0.1024175,                              !- Conductivity {W/m-K}
  544.68,                                 !- Density {kg/m3}
  1172.36,                                !- Specific Heat {J/kg-K}
  0.9,                                    !- Thermal Absorptance
  0.7,                                    !- Solar Absorptance
  0.7;                                    !- Visible Absorptance

OS:Material,
  {85ca10b6-c186-4c6b-a39d-728103d6313f}, !- Handle
  osb sheathing 0.5 in.,                  !- Name
  Rough,                                  !- Roughness
  0.0127,                                 !- Thickness {m}
  0.1154577,                              !- Conductivity {W/m-K}
  512.64,                                 !- Density {kg/m3}
  1214.23,                                !- Specific Heat {J/kg-K}
  0.9,                                    !- Thermal Absorptance
  0.7,                                    !- Solar Absorptance
  0.7;                                    !- Visible Absorptance

OS:Material,
  {92a81cc6-5d39-48f0-97c9-ff37cd834dc6}, !- Handle
  wall stud and cavity,                   !- Name
  Rough,                                  !- Roughness
  0.1397,                                 !- Thickness {m}
  0.0929021674204099,                     !- Conductivity {W/m-K}
  139.0536,                               !- Density {kg/m3}
  1170.23755760369,                       !- Specific Heat {J/kg-K}
  0.9,                                    !- Thermal Absorptance
  0.7,                                    !- Solar Absorptance
  0.7;                                    !- Visible Absorptance

OS:Material,
  {6511e016-e729-4aeb-a762-51635bee1228}, !- Handle
  gypsum board,                           !- Name
  Rough,                                  !- Roughness
  0.0127,                                 !- Thickness {m}
  0.1602906,                              !- Conductivity {W/m-K}
  801,                                    !- Density {kg/m3}
  837.4,                                  !- Specific Heat {J/kg-K}
  0.9,                                    !- Thermal Absorptance
  0.6,                                    !- Solar Absorptance
  0.6;                                    !- Visible Absorptance

OS:Construction,
  {61d2264c-f222-43a3-ac83-145b61b39403}, !- Handle
  Wall1 construction,                     !- Name
  ,                                       !- Surface Rendering Name
  {a427ec0c-37e6-466e-aff7-cbd9051eadf6}, !- Layer 1
  {85ca10b6-c186-4c6b-a39d-728103d6313f}, !- Layer 2
  {92a81cc6-5d39-48f0-97c9-ff37cd834dc6}, !- Layer 3
  {6511e016-e729-4aeb-a762-51635bee1228}; !- Layer 4

OS:Surface,
  {2108a495-e516-4639-9d5a-1f5801055891}, !- Handle
  Wall2,                                  !- Name
  Wall,                                   !- Surface Type
  {2a31c3b4-cb03-423e-91a0-6cc08f7610b8}, !- Construction Name
  {08711898-5ef3-4f1c-903f-ef5ad93cb189}, !- Space Name
  Outdoors,                               !- Outside Boundary Condition
  ,                                       !- Outside Boundary Condition Object
  SunExposed,                             !- Sun Exposure
  WindExposed,                            !- Wind Exposure
  ,                                       !- View Factor to Ground
  ,                                       !- Number of Vertices
  6.96193691424288, -1.00690691424288, 0, !- X,Y,Z Vertex 1 {m}
  6.96193691424288, -1.00690691424288, 2.4384, !- X,Y,Z Vertex 2 {m}
  6.96193691424288, -6.96193691424288, 2.4384, !- X,Y,Z Vertex 3 {m}
  6.96193691424288, -6.96193691424288, 0; !- X,Y,Z Vertex 4 {m}

OS:AdditionalProperties,
  {01bc9a6a-b7db-4395-a54b-418900cbdf61}, !- Handle
  {2108a495-e516-4639-9d5a-1f5801055891}, !- Object Name
  Length,                                 !- Feature Name 1
  Double,                                 !- Feature Data Type 1
  19.537500000000001,                     !- Feature Value 1
  Azimuth,                                !- Feature Name 2
  Integer,                                !- Feature Data Type 2
  90,                                     !- Feature Value 2
  Tilt,                                   !- Feature Name 3
  Double,                                 !- Feature Data Type 3
  90,                                     !- Feature Value 3
  SurfaceType,                            !- Feature Name 4
  String,                                 !- Feature Data Type 4
  Wall;                                   !- Feature Value 4

OS:Construction,
  {2a31c3b4-cb03-423e-91a0-6cc08f7610b8}, !- Handle
  Wall2 construction,                     !- Name
  ,                                       !- Surface Rendering Name
  {a427ec0c-37e6-466e-aff7-cbd9051eadf6}, !- Layer 1
  {85ca10b6-c186-4c6b-a39d-728103d6313f}, !- Layer 2
  {92a81cc6-5d39-48f0-97c9-ff37cd834dc6}, !- Layer 3
  {6511e016-e729-4aeb-a762-51635bee1228}; !- Layer 4

OS:Surface,
  {c69f036b-0c7d-4327-a44e-465283c480e5}, !- Handle
  Wall3,                                  !- Name
  Wall,                                   !- Surface Type
  {59bca767-005f-48e8-a0d2-9eeaa92c9694}, !- Construction Name
  {08711898-5ef3-4f1c-903f-ef5ad93cb189}, !- Space Name
  Outdoors,                               !- Outside Boundary Condition
  ,                                       !- Outside Boundary Condition Object
  SunExposed,                             !- Sun Exposure
  WindExposed,                            !- Wind Exposure
  ,                                       !- View Factor to Ground
  ,                                       !- Number of Vertices
  6.03290651424288, -6.96193691424288, 0, !- X,Y,Z Vertex 1 {m}
  6.03290651424288, -6.96193691424288, 2.4384, !- X,Y,Z Vertex 2 {m}
  -5.11896348575712, -6.96193691424288, 2.4384, !- X,Y,Z Vertex 3 {m}
  -5.11896348575712, -6.96193691424288, 0; !- X,Y,Z Vertex 4 {m}

OS:AdditionalProperties,
  {670bfa06-dd20-4859-858c-a08f9441ee0a}, !- Handle
  {c69f036b-0c7d-4327-a44e-465283c480e5}, !- Object Name
  Length,                                 !- Feature Name 1
  Double,                                 !- Feature Data Type 1
  36.587499999999999,                     !- Feature Value 1
  Azimuth,                                !- Feature Name 2
  Integer,                                !- Feature Data Type 2
  180,                                    !- Feature Value 2
  Tilt,                                   !- Feature Name 3
  Double,                                 !- Feature Data Type 3
  90,                                     !- Feature Value 3
  SurfaceType,                            !- Feature Name 4
  String,                                 !- Feature Data Type 4
  Wall;                                   !- Feature Value 4

OS:Construction,
  {59bca767-005f-48e8-a0d2-9eeaa92c9694}, !- Handle
  Wall3 construction,                     !- Name
  ,                                       !- Surface Rendering Name
  {a427ec0c-37e6-466e-aff7-cbd9051eadf6}, !- Layer 1
  {85ca10b6-c186-4c6b-a39d-728103d6313f}, !- Layer 2
  {92a81cc6-5d39-48f0-97c9-ff37cd834dc6}, !- Layer 3
  {6511e016-e729-4aeb-a762-51635bee1228}; !- Layer 4

OS:Surface,
  {c0e393f8-a7d7-483e-a95b-3f3fb00d0e3a}, !- Handle
  Wall4,                                  !- Name
  Wall,                                   !- Surface Type
  {3381ac44-34eb-4f0d-820d-071f46cfa1a7}, !- Construction Name
  {08711898-5ef3-4f1c-903f-ef5ad93cb189}, !- Space Name
  Outdoors,                               !- Outside Boundary Condition
  ,                                       !- Outside Boundary Condition Object
  SunExposed,                             !- Sun Exposure
  WindExposed,                            !- Wind Exposure
  ,                                       !- View Factor to Ground
  ,                                       !- Number of Vertices
  -6.96193691424288, 1.00690691424288, 0, !- X,Y,Z Vertex 1 {m}
  -6.96193691424288, 1.00690691424288, 2.4384, !- X,Y,Z Vertex 2 {m}
  -6.96193691424288, 6.96193691424288, 2.4384, !- X,Y,Z Vertex 3 {m}
  -6.96193691424288, 6.96193691424288, 0; !- X,Y,Z Vertex 4 {m}

OS:AdditionalProperties,
  {2228a912-268a-460a-b4d9-b23c96f75356}, !- Handle
  {c0e393f8-a7d7-483e-a95b-3f3fb00d0e3a}, !- Object Name