
OS:Version,
  {95b77c34-498c-4d88-9baa-ca423d4c9758}, !- Handle
  3.9.0;                                  !- Version Identifier

OS:SimulationControl,
  {aa7e2a23-801e-47b7-9b3d-02c96f408bfb}, !- Handle
  ,                                       !- Do Zone Sizing Calculation
  ,                                       !- Do System Sizing Calculation
  ,                                       !- Do Plant Sizing Calculation
  No;                                     !- Run Simulation for Sizing Periods

OS:Timestep,
  {59b4180f-496f-4625-a491-702ef0989113}, !- Handle
  1;                                      !- Number of Timesteps per Hour

OS:ShadowCalculation,
  {7766de1d-0415-4ebb-9489-bf733b44e76e}, !- Handle
  PolygonClipping,                        !- Shading Calculation Method
  ,                                       !- Shading Calculation Update Frequency Method
  20,                                     !- Shading Calculation Update Frequency
  200,                                    !- Maximum Figures in Shadow Overlap Calculations
  ,                                       !- Polygon Clipping Algorithm
  512,                                    !- Pixel Counting Resolution
  ,                                       !- Sky Diffuse Modeling Algorithm
  No,                                     !- Output External Shading Calculation Results
  No,                                     !- Disable Self-Shading Within Shading Zone Groups
  No;                                     !- Disable Self-Shading From Shading Zone Groups to Other Zones

OS:SurfaceConvectionAlgorithm:Outside,
  {f6eab4d0-5dd5-4b48-89b3-bb22c190021a}, !- Handle
  DOE-2;                                  !- Algorithm

OS:SurfaceConvectionAlgorithm:Inside,
  {f8569455-a895-4c36-b4bd-172bb6499e2f}, !- Handle
  TARP;                                   !- Algorithm

OS:ZoneCapacitanceMultiplier:ResearchSpecial,
  {beaadd9e-8259-4102-b1ac-edd1a0713cef}, !- Handle
  7,                                      !- Temperature Capacity Multiplier
  15,                                     !- Humidity Capacity Multiplier
  ;                                       !- Carbon Dioxide Capacity Multiplier

OS:ConvergenceLimits,
  {6a1b8df8-2617-42e6-9dd5-03b0c7da3bcb}, !- Handle
  0;                                      !- Minimum System Timestep {minutes}

OS:RunPeriod,
  {39e8879a-52d0-4225-b002-9a7e40c8f61d}, !- Handle
  Run Period 1,                           !- Name
  1,                                      !- Begin Month
  1,                                      !- Begin Day of Month
  12,                                     !- End Month
  31,                                     !- End Day of Month
  ,                                       !- Use Weather File Holidays and Special Days
  ,                                       !- Use Weather File Daylight Saving Period
  ,                                       !- Apply Weekend Holiday Rule
  ,                                       !- Use Weather File Rain Indicators
  ,                                       !- Use Weather File Snow Indicators
  ;                                       !- Number of Times Runperiod to be Repeated

OS:PerformancePrecisionTradeoffs,
  {e071b5bc-da6c-456e-a2dd-58a461dcbd5f}, !- Handle
  ,                                       !- Use Coil Direct Solutions
  CarrollMRT;                             !- Zone Radiant Exchange Algorithm

OS:WeatherFile,
  {e6c35bf4-6cc7-4702-a810-37900cc9a36c}, !- Handle
  Buffalo Niagara Intl Ap,                !- City
  NY,                                     !- State Province Region
  USA,                                    !- Country
  TMY3,                                   !- Data Source
  725280,                                 !- WMO Number
  42.93,                                  !- Latitude {deg}
  -78.73,                                 !- Longitude {deg}
  -5,                                     !- Time Zone {hr}
  215,                                    !- Elevation {m}
  /Users/nmoore/github/urbanopt-example-geojson-project/example_project/weather/USA_NY_Buffalo-Greater.Buffalo.Intl.AP.725280_TMY3.epw, !- Url
  6B50E0FF,                               !- Checksum
  ,                                       !- Start Date Actual Year
  Sunday;                                 !- Start Day of Week

OS:YearDescription,
  {591c90d2-0f6e-4c01-84cd-55b331b8c38d}, !- Handle
  2007,                                   !- Calendar Year
  ,                                       !- Day of Week for Start Day
  ;                                       !- Is Leap Year

OS:Site,
  {5185ba7e-4334-40e0-9a50-392d4ee1d898}, !- Handle
  Buffalo Niagara Intl Ap_NY,             !- Name
  42.93,                                  !- Latitude {deg}
  -78.73,                                 !- Longitude {deg}
  -5,                                     !- Time Zone {hr}
  215,                                    !- Elevation {m}
  Suburbs,                                !- Terrain
  Yes;                                    !- Keep Site Location Information

OS:RunPeriodControl:DaylightSavingTime,
  {7f9c5eab-e9b9-4e9c-a362-5aa2b0e0ce0a}, !- Handle
  Mar 12,                                 !- Start Date
  Nov 5;                                  !- End Date

OS:Site:GroundTemperature:Shallow,
  {b3451063-7e44-4751-bdf9-e0009a6a59c5}, !- Handle
  4.30207395723828,                       !- January Surface Ground Temperature {C}
  2.29327249652502,                       !- February Surface Ground Temperature {C}
  2.13240047156047,                       !- March Surface Ground Temperature {C}
  3.08567940719286,                       !- April Surface Ground Temperature {C}
  6.91256312497526,                       !- May Surface Ground Temperature {C}
  10.7216195949507,                       !- June Surface Ground Temperature {C}
  14.0238679822574,                       !- July Surface Ground Temperature {C}
  16.1157611184724,                       !- August Surface Ground Temperature {C}
  16.2934789303462,                       !- September Surface Ground Temperature {C}
  14.5920754632847,                       !- October Surface Ground Temperature {C}
  11.374036348653,                        !- November Surface Ground Temperature {C}
  7.68182621661674;                       !- December Surface Ground Temperature {C}

OS:ThermalZone,
  {c90bed98-fea0-4a10-98c9-9dd4d2798fff}, !- Handle
  conditioned space,                      !- Name
  1,                                      !- Multiplier
  ,                                       !- Ceiling Height {m}
  346.03186535424,                        !- Volume {m3}
  ,                                       !- Floor Area {m2}
  ,                                       !- Zone Inside Convection Algorithm
  ,                                       !- Zone Outside Convection Algorithm
  ,                                       !- Zone Conditioning Equipment List Name
  {842ff2e6-4dca-4e5d-a1d2-413b80089568}, !- Zone Air Inlet Port List
  {bbef20b4-8973-4f73-a61d-8d91d5fdfa6a}, !- Zone Air Exhaust Port List
  {4662b69b-7d87-4d4e-acf3-b079cd2c81a7}, !- Zone Air Node Name
  {cff72e79-9613-4223-b74d-297ee4bb3219}, !- Zone Return Air Port List
  ,                                       !- Primary Daylighting Control Name
  ,                                       !- Fraction of Zone Controlled by Primary Daylighting Control
  ,                                       !- Secondary Daylighting Control Name
  ,                                       !- Fraction of Zone Controlled by Secondary Daylighting Control
  ,                                       !- Illuminance Map Name
  ,                                       !- Group Rendering Name
  {e1f5adef-be16-4810-8863-fa5c93c5cd49}, !- Thermostat Name
  No;                                     !- Use Ideal Air Loads

OS:Node,
  {cd43db6f-2626-480f-9f01-cb26b14081e2}, !- Handle
  Node 1,                                 !- Name
  {4662b69b-7d87-4d4e-acf3-b079cd2c81a7}, !- Inlet Port
  ;                                       !- Outlet Port

OS:Connection,
  {4662b69b-7d87-4d4e-acf3-b079cd2c81a7}, !- Handle
  {c90bed98-fea0-4a10-98c9-9dd4d2798fff}, !- Source Object
  11,                                     !- Outlet Port
  {cd43db6f-2626-480f-9f01-cb26b14081e2}, !- Target Object
  2;                                      !- Inlet Port

OS:PortList,
  {842ff2e6-4dca-4e5d-a1d2-413b80089568}, !- Handle
  {c90bed98-fea0-4a10-98c9-9dd4d2798fff}, !- HVAC Component
  {0df0bb8b-8c57-444f-99a2-ee73bc178fb0}; !- Port 1

OS:PortList,
  {bbef20b4-8973-4f73-a61d-8d91d5fdfa6a}, !- Handle
  {c90bed98-fea0-4a10-98c9-9dd4d2798fff}; !- HVAC Component

OS:PortList,
  {cff72e79-9613-4223-b74d-297ee4bb3219}, !- Handle
  {c90bed98-fea0-4a10-98c9-9dd4d2798fff}, !- HVAC Component
  {f712c2d2-846e-454e-938f-b003ea90bc06}; !- Port 1

OS:Sizing:Zone,
  {c9e2981d-3137-4faf-b263-a24d787f8366}, !- Handle
  {c90bed98-fea0-4a10-98c9-9dd4d2798fff}, !- Zone or ZoneList Name
  SupplyAirTemperature,                   !- Zone Cooling Design Supply Air Temperature Input Method
  14,                                     !- Zone Cooling Design Supply Air Temperature {C}
  11.11,                                  !- Zone Cooling Design Supply Air Temperature Difference {deltaC}
  SupplyAirTemperature,                   !- Zone Heating Design Supply Air Temperature Input Method
  40,                                     !- Zone Heating Design Supply Air Temperature {C}
  11.11,                                  !- Zone Heating Design Supply Air Temperature Difference {deltaC}
  0.0085,                                 !- Zone Cooling Design Supply Air Humidity Ratio {kg-H2O/kg-air}
  0.008,                                  !- Zone Heating Design Supply Air Humidity Ratio {kg-H2O/kg-air}
  ,                                       !- Zone Heating Sizing Factor
  ,                                       !- Zone Cooling Sizing Factor
  DesignDay,                              !- Cooling Design Air Flow Method
  ,                                       !- Cooling Design Air Flow Rate {m3/s}
  ,                                       !- Cooling Minimum Air Flow per Zone Floor Area {m3/s-m2}
  ,                                       !- Cooling Minimum Air Flow {m3/s}
  ,                                       !- Cooling Minimum Air Flow Fraction
  DesignDay,                              !- Heating Design Air Flow Method
  ,                                       !- Heating Design Air Flow Rate {m3/s}
  ,                                       !- Heating Maximum Air Flow per Zone Floor Area {m3/s-m2}
  ,                                       !- Heating Maximum Air Flow {m3/s}
  ,                                       !- Heating Maximum Air Flow Fraction
  No,                                     !- Account for Dedicated Outdoor Air System
  NeutralSupplyAir,                       !- Dedicated Outdoor Air System Control Strategy
  autosize,                               !- Dedicated Outdoor Air Low Setpoint Temperature for Design {C}
  autosize,                               !- Dedicated Outdoor Air High Setpoint Temperature for Design {C}
  Sensible Load Only No Latent Load,      !- Zone Load Sizing Method
  HumidityRatioDifference,                !- Zone Latent Cooling Design Supply Air Humidity Ratio Input Method
  ,                                       !- Zone Dehumidification Design Supply Air Humidity Ratio {kgWater/kgDryAir}
  0.005,                                  !- Zone Cooling Design Supply Air Humidity Ratio Difference {kgWater/kgDryAir}
  HumidityRatioDifference,                !- Zone Latent Heating Design Supply Air Humidity Ratio Input Method
  ,                                       !- Zone Humidification Design Supply Air Humidity Ratio {kgWater/kgDryAir}
  0.005,                                  !- Zone Humidification Design Supply Air Humidity Ratio Difference {kgWater/kgDryAir}
  ,                                       !- Zone Humidistat Dehumidification Set Point Schedule Name
  ,                                       !- Zone Humidistat Humidification Set Point Schedule Name
  ,                                       !- Design Zone Air Distribution Effectiveness in Cooling Mode
  ,                                       !- Design Zone Air Distribution Effectiveness in Heating Mode
  ,                                       !- Design Zone Secondary Recirculation Fraction {dimensionless}
  ,                                       !- Design Minimum Zone Ventilation Efficiency {dimensionless}
  Coincident;                             !- Sizing Option

OS:ZoneHVAC:EquipmentList,
  {bcc27d03-ef3a-4538-a0ec-0235402a0af2}, !- Handle
  Zone HVAC Equipment List 1,             !- Name
  {c90bed98-fea0-4a10-98c9-9dd4d2798fff}, !- Thermal Zone
  ,                                       !- Load Distribution Scheme
  {c1f5cf82-d53a-4d61-9983-5f7f4dbde204}, !- Zone Equipment 1
  1,                                      !- Zone Equipment Cooling Sequence 1
  1,                                      !- Zone Equipment Heating or No-Load Sequence 1
  {b2c0a8ff-006d-405c-b726-9ce9f2e6cfdf}, !- Zone Equipment Sequential Cooling Fraction Schedule Name 1
  {2b9dc101-77d5-422d-a181-6e9a8e2f9ff7}; !- Zone Equipment Sequential Heating Fraction Schedule Name 1

OS:AdditionalProperties,
  {762029f4-2262-4f8c-99cb-40c1a0d0a0cf}, !- Handle
  {c90bed98-fea0-4a10-98c9-9dd4d2798fff}, !- Object Name
  ObjectType,                             !- Feature Name 1
  String,                                 !- Feature Data Type 1
  conditioned space;                      !- Feature Value 1

OS:Space,
  {73128f82-8982-4e4c-be77-b00b81ea7495}, !- Handle
  conditioned space 1,                    !- Name
  ,                                       !- Space Type Name
  ,                                       !- Default Construction Set Name
  ,                                       !- Default Schedule Set Name
  ,                                       !- Direction of Relative North {deg}
  ,                                       !- X Origin {m}
  ,                                       !- Y Origin {m}
  ,                                       !- Z Origin {m}
  ,                                       !- Building Story Name
  {c90bed98-fea0-4a10-98c9-9dd4d2798fff}, !- Thermal Zone Name
  ,                                       !- Part of Total Floor Area
  ,                                       !- Design Specification Outdoor Air Object Name
  ,                                       !- Building Unit Name
  346.03186535424;                        !- Volume {m3}

OS:Schedule:Ruleset,
  {2945f4b4-de1b-48a6-9d34-a159d34f1bfd}, !- Handle
  heating setpoint,                       !- Name
  {e7557ab4-ddf6-45e0-aaf9-994ef810fdc7}, !- Schedule Type Limits Name
  {9313f1d4-1a5d-49dd-a6f9-884672c85686}; !- Default Day Schedule Name

OS:Schedule:Day,
  {9313f1d4-1a5d-49dd-a6f9-884672c85686}, !- Handle
  heating setpoint default day,           !- Name
  {e7557ab4-ddf6-45e0-aaf9-994ef810fdc7}, !- Schedule Type Limits Name
  ,                                       !- Interpolate to Timestep
  24,                                     !- Hour 1
  0,                                      !- Minute 1
  0;                                      !- Value Until Time 1

OS:Schedule:Rule,
  {586bc347-b790-4186-9022-d469f06ece8a}, !- Handle
  heating setpoint allday rule,           !- Name
  {2945f4b4-de1b-48a6-9d34-a159d34f1bfd}, !- Schedule Ruleset Name
  0,                                      !- Rule Order
  {c02ea07d-13b8-45e8-8579-c094861b13bc}, !- Day Schedule Name
  Yes,                                    !- Apply Sunday
  Yes,                                    !- Apply Monday
  Yes,                                    !- Apply Tuesday
  Yes,                                    !- Apply Wednesday
  Yes,                                    !- Apply Thursday
  Yes,                                    !- Apply Friday
  Yes,                                    !- Apply Saturday
  DateRange,                              !- Date Specification Type
  1,                                      !- Start Month
  1,                                      !- Start Day
  12,                                     !- End Month
  31;                                     !- End Day

OS:Schedule:Day,
  {c02ea07d-13b8-45e8-8579-c094861b13bc}, !- Handle
  heating setpoint day,                   !- Name
  {e7557ab4-ddf6-45e0-aaf9-994ef810fdc7}, !- Schedule Type Limits Name
  ,                                       !- Interpolate to Timestep
  24,                                     !- Hour 1
  0,                                      !- Minute 1
  20;                                     !- Value Until Time 1

OS:Schedule:Ruleset,
  {52c48a03-6b01-4cf8-a068-4a0d6a6fb0f5}, !- Handle
  cooling setpoint,                       !- Name
  {e7557ab4-ddf6-45e0-aaf9-994ef810fdc7}, !- Schedule Type Limits Name
  {0377326b-7bcd-4bfd-8e35-fcfc515d5767}; !- Default Day Schedule Name

OS:Schedule:Day,
  {0377326b-7bcd-4bfd-8e35-fcfc515d5767}, !- Handle
  cooling setpoint default day,           !- Name
  {e7557ab4-ddf6-45e0-aaf9-994ef810fdc7}, !- Schedule Type Limits Name
  ,                                       !- Interpolate to Timestep
  24,                                     !- Hour 1
  0,                                      !- Minute 1
  0;                                      !- Value Until Time 1

OS:Schedule:Rule,
  {3a3f7770-0314-4d65-bef4-b98703f59845}, !- Handle
  cooling setpoint allday rule,           !- Name
  {52c48a03-6b01-4cf8-a068-4a0d6a6fb0f5}, !- Schedule Ruleset Name
  0,                                      !- Rule Order
  {1eb035d7-44b5-480e-8cc8-9bc666fea7a2}, !- Day Schedule Name
  Yes,                                    !- Apply Sunday
  Yes,                                    !- Apply Monday
  Yes,                                    !- Apply Tuesday
  Yes,                                    !- Apply Wednesday
  Yes,                                    !- Apply Thursday
  Yes,                                    !- Apply Friday
  Yes,                                    !- Apply Saturday
  DateRange,                              !- Date Specification Type
  1,                                      !- Start Month
  1,                                      !- Start Day
  12,                                     !- End Month
  31;                                     !- End Day

OS:Schedule:Day,
  {1eb035d7-44b5-480e-8cc8-9bc666fea7a2}, !- Handle
  cooling setpoint day,                   !- Name
  {e7557ab4-ddf6-45e0-aaf9-994ef810fdc7}, !- Schedule Type Limits Name
  ,                                       !- Interpolate to Timestep
  24,                                     !- Hour 1
  0,                                      !- Minute 1
  25.5555555555556;                       !- Value Until Time 1

OS:ThermostatSetpoint:DualSetpoint,
  {e1f5adef-be16-4810-8863-fa5c93c5cd49}, !- Handle
  conditioned space temperature setpoint, !- Name
  {2945f4b4-de1b-48a6-9d34-a159d34f1bfd}, !- Heating Setpoint Temperature Schedule Name
  {52c48a03-6b01-4cf8-a068-4a0d6a6fb0f5}, !- Cooling Setpoint Temperature Schedule Name
  0;                                      !- Temperature Difference Between Cutout And Setpoint {deltaC}

OS:ScheduleTypeLimits,
  {e7557ab4-ddf6-45e0-aaf9-994ef810fdc7}, !- Handle
  Temperature,                            !- Name
  ,                                       !- Lower Limit Value
  ,                                       !- Upper Limit Value
  Continuous,                             !- Numeric Type
  Temperature;                            !- Unit Type

OS:Surface,
  {627f06a4-ea92-46a5-aeb9-157bb4737c78}, !- Handle
  Wall1,                                  !- Name
  Wall,                                   !- Surface Type
  {efa07eb4-ad66-4ca1-b1c7-b2184936a8b2}, !- Construction Name
  {73128f82-8982-4e4c-be77-b00b81ea7495}, !- Space Name
  Outdoors,                               !- Outside Boundary Condition
  ,                                       !- Outside Boundary Condition Object
  SunExposed,                             !- Sun Exposure
  WindExposed,                            !- Wind Exposure
  ,                                       !- View Factor to Ground
  ,                                       !- Number of Vertices
  -4.95193308575712, 6.96193691424288, 0, !- X,Y,Z Vertex 1 {m}
  -4.95193308575712, 6.96193691424288, 2.4384, !- X,Y,Z Vertex 2 {m}
  6.96193691424288, 6.96193691424288, 2.4384, !- X,Y,Z Vertex 3 {m}
  6.96193691424288, 6.96193691424288, 0;  !- X,Y,Z Vertex 4 {m}

OS:AdditionalProperties,
  {8c6f2c7c-b997-49bb-b5fe-79aebaf365d0}, !- Handle
  {627f06a4-ea92-46a5-aeb9-157bb4737c78}, !- Object Name
  Length,                                 !- Feature Name 1
  Double,                                 !- Feature Data Type 1
  39.087499999999999,                     !- Feature Value 1
  Azimuth,                                !- Feature Name 2
  Integer,                                !- Feature Data Type 2
  0,                                      !- Feature Value 2
  Tilt,                                   !- Feature Name 3
  Double,                                 !- Feature Data Type 3
  90,                                     !- Feature Value 3
  SurfaceType,                            !- Feature Name 4
  String,                                 !- Feature Data Type 4
  Wall;                                   !- Feature Value 4

OS:Material,
  {1b449cbb-ae8a-443e-85e8-8bf4c1bfb9d5}, !- Handle
  wood siding,                            !- Name
  Rough,                                  !- Roughness
  0.0254,                                 !- Thickness {m}
  0.1024175,                              !- Conductivity {W/m-K}
  544.68,                                 !- Density {kg/m3}
  1172.36,                                !- Specific Heat {J/kg-K}
  0.9,                                    !- Thermal Absorptance
  0.7,                                    !- Solar Absorptance
  0.7;                                    !- Visible Absorptance

OS:Material,
  {93ce367f-e7fc-4e13-9a5e-6b926cad9299}, !- Handle
  osb sheathing 0.5 in.,                  !- Name
  Rough,                                  !- Roughness
  0.0127,                                 !- Thickness {m}
  0.1154577,                              !- Conductivity {W/m-K}
  512.64,                                 !- Density {kg/m3}
  1214.23,                                !- Specific Heat {J/kg-K}
  0.9,                                    !- Thermal Absorptance
  0.7,                                    !- Solar Absorptance
  0.7;                                    !- Visible Absorptance

OS:Material,
  {27578b94-bff5-4667-9267-4f88f755449d}, !- Handle
  wall stud and cavity,                   !- Name
  Rough,                                  !- Roughness
  0.1397,                                 !- Thickness {m}
  0.0929021674204099,                     !- Conductivity {W/m-K}
  139.0536,                               !- Density {kg/m3}
  1170.23755760369,                       !- Specific Heat {J/kg-K}
  0.9,                                    !- Thermal Absorptance
  0.7,                                    !- Solar Absorptance
  0.7;                                    !- Visible Absorptance

OS:Material,
  {d0d41517-7a52-4c9a-a6bd-a336ab514eaa}, !- Handle
  gypsum board,                           !- Name
  Rough,                                  !- Roughness
  0.0127,                                 !- Thickness {m}
  0.1602906,                              !- Conductivity {W/m-K}
  801,                                    !- Density {kg/m3}
  837.4,                                  !- Specific Heat {J/kg-K}
  0.9,                                    !- Thermal Absorptance
  0.6,                                    !- Solar Absorptance
  0.6;                                    !- Visible Absorptance

OS:Construction,
  {efa07eb4-ad66-4ca1-b1c7-b2184936a8b2}, !- Handle
  Wall1 construction,                     !- Name
  ,                                       !- Surface Rendering Name
  {1b449cbb-ae8a-443e-85e8-8bf4c1bfb9d5}, !- Layer 1
  {93ce367f-e7fc-4e13-9a5e-6b926cad9299}, !- Layer 2
  {27578b94-bff5-4667-9267-4f88f755449d}, !- Layer 3
  {d0d41517-7a52-4c9a-a6bd-a336ab514eaa}; !- Layer 4

OS:Surface,
  {28c3cdbc-fad8-421c-b2d9-f9beefd7a904}, !- Handle
  Wall2,                                  !- Name
  Wall,                                   !- Surface Type
  {54a98432-3144-41e9-acf6-1894a4b7679f}, !- Construction Name
  {73128f82-8982-4e4c-be77-b00b81ea7495}, !- Space Name
  Outdoors,                               !- Outside Boundary Condition
  ,                                       !- Outside Boundary Condition Object
  SunExposed,                             !- Sun Exposure
  WindExposed,                            !- Wind Exposure
  ,                                       !- View Factor to Ground
  ,                                       !- Number of Vertices
  6.96193691424288, -1.00690691424288, 0, !- X,Y,Z Vertex 1 {m}
  6.96193691424288, -1.00690691424288, 2.4384, !- X,Y,Z Vertex 2 {m}
  6.96193691424288, -6.96193691424288, 2.4384, !- X,Y,Z Vertex 3 {m}
  6.96193691424288, -6.96193691424288, 0; !- X,Y,Z Vertex 4 {m}

OS:AdditionalProperties,
  {421501cf-2fe4-40a2-911d-6cf4293f6e79}, !- Handle
  {28c3cdbc-fad8-421c-b2d9-f9beefd7a904}, !- Object Name
  Length,                                 !- Feature Name 1
  Double,                                 !- Feature Data Type 1
  19.537500000000001,                     !- Feature Value 1
  Azimuth,                                !- Feature Name 2
  Integer,                                !- Feature Data Type 2
  90,                                     !- Feature Value 2
  Tilt,                                   !- Feature Name 3
  Double,                                 !- Feature Data Type 3
  90,                                     !- Feature Value 3
  SurfaceType,                            !- Feature Name 4
  String,                                 !- Feature Data Type 4
  Wall;                                   !- Feature Value 4

OS:Construction,
  {54a98432-3144-41e9-acf6-1894a4b7679f}, !- Handle
  Wall2 construction,                     !- Name
  ,                                       !- Surface Rendering Name
  {1b449cbb-ae8a-443e-85e8-8bf4c1bfb9d5}, !- Layer 1
  {93ce367f-e7fc-4e13-9a5e-6b926cad9299}, !- Layer 2
  {27578b94-bff5-4667-9267-4f88f755449d}, !- Layer 3
  {d0d41517-7a52-4c9a-a6bd-a336ab514eaa}; !- Layer 4

OS:Surface,
  {c153d5d5-7f18-4d6e-9692-b2919b59a16d}, !- Handle
  Wall3,                                  !- Name
  Wall,                                   !- Surface Type
  {03a52555-cd77-4bb0-8877-0300c9901dc1}, !- Construction Name
  {73128f82-8982-4e4c-be77-b00b81ea7495}, !- Space Name
  Outdoors,                               !- Outside Boundary Condition
  ,                                       !- Outside Boundary Condition Object
  SunExposed,                             !- Sun Exposure
  WindExposed,                            !- Wind Exposure
  ,                                       !- View Factor to Ground
  ,                                       !- Number of Vertices
  6.03290651424288, -6.96193691424288, 0, !- X,Y,Z Vertex 1 {m}
  6.03290651424288, -6.96193691424288, 2.4384, !- X,Y,Z Vertex 2 {m}
  -5.11896348575712, -6.96193691424288, 2.4384, !- X,Y,Z Vertex 3 {m}
  -5.11896348575712, -6.96193691424288, 0; !- X,Y,Z Vertex 4 {m}

OS:AdditionalProperties,
  {7fb62d7e-465e-4b83-88a0-55eab632f090}, !- Handle
  {c153d5d5-7f18-4d6e-9692-b2919b59a16d}, !- Object Name
  Length,                                 !- Feature Name 1
  Double,                                 !- Feature Data Type 1
  36.587499999999999,                     !- Feature Value 1
  Azimuth,                                !- Feature Name 2
  Integer,                                !- Feature Data Type 2
  180,                                    !- Feature Value 2
  Tilt,                                   !- Feature Name 3
  Double,                                 !- Feature Data Type 3
  90,                                     !- Feature Value 3
  SurfaceType,                            !- Feature Name 4
  String,                                 !- Feature Data Type 4
  Wall;                                   !- Feature Value 4

OS:Construction,
  {03a52555-cd77-4bb0-8877-0300c9901dc1}, !- Handle
  Wall3 construction,                     !- Name
  ,                                       !- Surface Rendering Name
  {1b449cbb-ae8a-443e-85e8-8bf4c1bfb9d5}, !- Layer 1
  {93ce367f-e7fc-4e13-9a5e-6b926cad9299}, !- Layer 2
  {27578b94-bff5-4667-9267-4f88f755449d}, !- Layer 3
  {d0d41517-7a52-4c9a-a6bd-a336ab514eaa}; !- Layer 4

OS:Surface,
  {bf546be7-7224-46ff-94d1-a89ca4d1e413}, !- Handle
  Wall4,                                  !- Name
  Wall,                                   !- Surface Type
  {fa71ab04-1eeb-4f4f-92c6-be20166f435b}, !- Construction Name
  {73128f82-8982-4e4c-be77-b00b81ea7495}, !- Space Name
  Outdoors,                               !- Outside Boundary Condition
  ,                                       !- Outside Boundary Condition Object
  SunExposed,                             !- Sun Exposure
  WindExposed,                            !- Wind Exposure
  ,                                       !- View Factor to Ground
  ,                                       !- Number of Vertices
  -6.96193691424288, 1.00690691424288, 0, !- X,Y,Z Vertex 1 {m}
  -6.96193691424288, 1.00690691424288, 2.4384, !- X,Y,Z Vertex 2 {m}
  -6.96193691424288, 6.96193691424288, 2.4384, !- X,Y,Z Vertex 3 {m}
  -6.96193691424288, 6.96193691424288, 0; !- X,Y,Z Vertex 4 {m}

OS:AdditionalProperties,
  {7e3fed40-2993-4711-90c2-b6ea077324c4}, !- Handle
  {bf546be7-7224-46ff-94d1-a89ca4d1e413}, !- Object Name