
OS:Version,
  {46bfbe8b-976a-487c-a2ff-12a9e4edd0b3}, !- Handle
  3.9.0;                                  !- Version Identifier

OS:SimulationControl,
  {dc52fe1a-3f17-47ac-a211-b596ab95257f}, !- Handle
  ,                                       !- Do Zone Sizing Calculation
  ,                                       !- Do System Sizing Calculation
  ,                                       !- Do Plant Sizing Calculation
  No;                                     !- Run Simulation for Sizing Periods

OS:Timestep,
  {73827658-007b-4418-ac20-4ae0df14bc82}, !- Handle
  1;                                      !- Number of Timesteps per Hour

OS:ShadowCalculation,
  {81191012-f31b-4eff-9774-4b6cc8406c90}, !- Handle
  PolygonClipping,                        !- Shading Calculation Method
  ,                                       !- Shading Calculation Update Frequency Method
  20,                                     !- Shading Calculation Update Frequency
  200,                                    !- Maximum Figures in Shadow Overlap Calculations
  ,                                       !- Polygon Clipping Algorithm
  512,                                    !- Pixel Counting Resolution
  ,                                       !- Sky Diffuse Modeling Algorithm
  No,                                     !- Output External Shading Calculation Results
  No,                                     !- Disable Self-Shading Within Shading Zone Groups
  No;                                     !- Disable Self-Shading From Shading Zone Groups to Other Zones

OS:SurfaceConvectionAlgorithm:Outside,
  {e92d6e68-c3cc-400b-891d-cab4d97e5f1a}, !- Handle
  DOE-2;                                  !- Algorithm

OS:SurfaceConvectionAlgorithm:Inside,
  {409c5536-8161-402d-a32f-b86483678f30}, !- Handle
  TARP;                                   !- Algorithm

OS:ZoneCapacitanceMultiplier:ResearchSpecial,
  {9f0266b1-1f69-4abc-b0bc-f2571ebd861c}, !- Handle
  7,                                      !- Temperature Capacity Multiplier
  15,                                     !- Humidity Capacity Multiplier
  ;                                       !- Carbon Dioxide Capacity Multiplier

OS:ConvergenceLimits,
  {79962810-43a2-4b49-adae-06ad2a0c980c}, !- Handle
  0;                                      !- Minimum System Timestep {minutes}

OS:RunPeriod,
  {91d24a51-2394-4a20-8c7f-d807c94355b1}, !- Handle
  Run Period 1,                           !- Name
  1,                                      !- Begin Month
  1,                                      !- Begin Day of Month
  12,                                     !- End Month
  31,                                     !- End Day of Month
  ,                                       !- Use Weather File Holidays and Special Days
  ,                                       !- Use Weather File Daylight Saving Period
  ,                                       !- Apply Weekend Holiday Rule
  ,                                       !- Use Weather File Rain Indicators
  ,                                       !- Use Weather File Snow Indicators
  ;                                       !- Number of Times Runperiod to be Repeated

OS:PerformancePrecisionTradeoffs,
  {ad217d20-495f-4bcb-9583-799f66d38493}, !- Handle
  ,                                       !- Use Coil Direct Solutions
  CarrollMRT;                             !- Zone Radiant Exchange Algorithm

OS:WeatherFile,
  {64693c7c-faa5-47ac-bbbb-ba475b2479c3}, !- Handle
  Buffalo Niagara Intl Ap,                !- City
  NY,                                     !- State Province Region
  USA,                                    !- Country
  TMY3,                                   !- Data Source
  725280,                                 !- WMO Number
  42.93,                                  !- Latitude {deg}
  -78.73,                                 !- Longitude {deg}
  -5,                                     !- Time Zone {hr}
  215,                                    !- Elevation {m}
  /Users/nmoore/github/urbanopt-example-geojson-project/example_project/weather/USA_NY_Buffalo-Greater.Buffalo.Intl.AP.725280_TMY3.epw, !- Url
  6B50E0FF,                               !- Checksum
  ,                                       !- Start Date Actual Year
  Sunday;                                 !- Start Day of Week

OS:YearDescription,
  {2a3ff0f1-6bfb-4dcc-9c73-159d5d82e1d7}, !- Handle
  2007,                                   !- Calendar Year
  ,                                       !- Day of Week for Start Day
  ;                                       !- Is Leap Year

OS:Site,
  {daabd349-47d7-4b10-bf0c-a326cf9bbe06}, !- Handle
  Buffalo Niagara Intl Ap_NY,             !- Name
  42.93,                                  !- Latitude {deg}
  -78.73,                                 !- Longitude {deg}
  -5,                                     !- Time Zone {hr}
  215,                                    !- Elevation {m}
  Suburbs,                                !- Terrain
  Yes;                                    !- Keep Site Location Information

OS:RunPeriodControl:DaylightSavingTime,
  {7e5be896-5d66-4f25-941a-a46550292ac8}, !- Handle
  Mar 12,                                 !- Start Date
  Nov 5;                                  !- End Date

OS:Site:GroundTemperature:Shallow,
  {23046b8d-018b-490d-a5d8-32ef2e38bcaf}, !- Handle
  4.30207395723828,                       !- January Surface Ground Temperature {C}
  2.29327249652502,                       !- February Surface Ground Temperature {C}
  2.13240047156047,                       !- March Surface Ground Temperature {C}
  3.08567940719286,                       !- April Surface Ground Temperature {C}
  6.91256312497526,                       !- May Surface Ground Temperature {C}
  10.7216195949507,                       !- June Surface Ground Temperature {C}
  14.0238679822574,                       !- July Surface Ground Temperature {C}
  16.1157611184724,                       !- August Surface Ground Temperature {C}
  16.2934789303462,                       !- September Surface Ground Temperature {C}
  14.5920754632847,                       !- October Surface Ground Temperature {C}
  11.374036348653,                        !- November Surface Ground Temperature {C}
  7.68182621661674;                       !- December Surface Ground Temperature {C}

OS:ThermalZone,
  {edd59ada-3dc6-44c1-ba31-245c94457407}, !- Handle
  conditioned space,                      !- Name
  1,                                      !- Multiplier
  ,                                       !- Ceiling Height {m}
  346.03186535424,                        !- Volume {m3}
  ,                                       !- Floor Area {m2}
  ,                                       !- Zone Inside Convection Algorithm
  ,                                       !- Zone Outside Convection Algorithm
  ,                                       !- Zone Conditioning Equipment List Name
  {154f3aee-2e3d-4b15-9852-3f8a94a86176}, !- Zone Air Inlet Port List
  {3cdb3ade-35db-4f84-bde4-e5542ce24fe7}, !- Zone Air Exhaust Port List
  {d118e738-721e-48ee-a752-d91668e073a5}, !- Zone Air Node Name
  {20e7773c-4e4c-4800-9a2e-22fb3f9a4949}, !- Zone Return Air Port List
  ,                                       !- Primary Daylighting Control Name
  ,                                       !- Fraction of Zone Controlled by Primary Daylighting Control
  ,                                       !- Secondary Daylighting Control Name
  ,                                       !- Fraction of Zone Controlled by Secondary Daylighting Control
  ,                                       !- Illuminance Map Name
  ,                                       !- Group Rendering Name
  {65eb4fb3-78ef-4728-8857-cdb521985bb6}, !- Thermostat Name
  No;                                     !- Use Ideal Air Loads

OS:Node,
  {c0b49d46-a652-4c72-9c82-fd4f49d799d0}, !- Handle
  Node 1,                                 !- Name
  {d118e738-721e-48ee-a752-d91668e073a5}, !- Inlet Port
  ;                                       !- Outlet Port

OS:Connection,
  {d118e738-721e-48ee-a752-d91668e073a5}, !- Handle
  {edd59ada-3dc6-44c1-ba31-245c94457407}, !- Source Object
  11,                                     !- Outlet Port
  {c0b49d46-a652-4c72-9c82-fd4f49d799d0}, !- Target Object
  2;                                      !- Inlet Port

OS:PortList,
  {154f3aee-2e3d-4b15-9852-3f8a94a86176}, !- Handle
  {edd59ada-3dc6-44c1-ba31-245c94457407}, !- HVAC Component
  {072c1d97-95a0-4b72-87db-d7962eb51d51}; !- Port 1

OS:PortList,
  {3cdb3ade-35db-4f84-bde4-e5542ce24fe7}, !- Handle
  {edd59ada-3dc6-44c1-ba31-245c94457407}; !- HVAC Component

OS:PortList,
  {20e7773c-4e4c-4800-9a2e-22fb3f9a4949}, !- Handle
  {edd59ada-3dc6-44c1-ba31-245c94457407}, !- HVAC Component
  {7945596d-0556-45f6-83de-79066927e626}; !- Port 1

OS:Sizing:Zone,
  {7f514055-36b1-4880-8ed7-4092f5f9b51c}, !- Handle
  {edd59ada-3dc6-44c1-ba31-245c94457407}, !- Zone or ZoneList Name
  SupplyAirTemperature,                   !- Zone Cooling Design Supply Air Temperature Input Method
  14,                                     !- Zone Cooling Design Supply Air Temperature {C}
  11.11,                                  !- Zone Cooling Design Supply Air Temperature Difference {deltaC}
  SupplyAirTemperature,                   !- Zone Heating Design Supply Air Temperature Input Method
  40,                                     !- Zone Heating Design Supply Air Temperature {C}
  11.11,                                  !- Zone Heating Design Supply Air Temperature Difference {deltaC}
  0.0085,                                 !- Zone Cooling Design Supply Air Humidity Ratio {kg-H2O/kg-air}
  0.008,                                  !- Zone Heating Design Supply Air Humidity Ratio {kg-H2O/kg-air}
  ,                                       !- Zone Heating Sizing Factor
  ,                                       !- Zone Cooling Sizing Factor
  DesignDay,                              !- Cooling Design Air Flow Method
  ,                                       !- Cooling Design Air Flow Rate {m3/s}
  ,                                       !- Cooling Minimum Air Flow per Zone Floor Area {m3/s-m2}
  ,                                       !- Cooling Minimum Air Flow {m3/s}
  ,                                       !- Cooling Minimum Air Flow Fraction
  DesignDay,                              !- Heating Design Air Flow Method
  ,                                       !- Heating Design Air Flow Rate {m3/s}
  ,                                       !- Heating Maximum Air Flow per Zone Floor Area {m3/s-m2}
  ,                                       !- Heating Maximum Air Flow {m3/s}
  ,                                       !- Heating Maximum Air Flow Fraction
  No,                                     !- Account for Dedicated Outdoor Air System
  NeutralSupplyAir,                       !- Dedicated Outdoor Air System Control Strategy
  autosize,                               !- Dedicated Outdoor Air Low Setpoint Temperature for Design {C}
  autosize,                               !- Dedicated Outdoor Air High Setpoint Temperature for Design {C}
  Sensible Load Only No Latent Load,      !- Zone Load Sizing Method
  HumidityRatioDifference,                !- Zone Latent Cooling Design Supply Air Humidity Ratio Input Method
  ,                                       !- Zone Dehumidification Design Supply Air Humidity Ratio {kgWater/kgDryAir}
  0.005,                                  !- Zone Cooling Design Supply Air Humidity Ratio Difference {kgWater/kgDryAir}
  HumidityRatioDifference,                !- Zone Latent Heating Design Supply Air Humidity Ratio Input Method
  ,                                       !- Zone Humidification Design Supply Air Humidity Ratio {kgWater/kgDryAir}
  0.005,                                  !- Zone Humidification Design Supply Air Humidity Ratio Difference {kgWater/kgDryAir}
  ,                                       !- Zone Humidistat Dehumidification Set Point Schedule Name
  ,                                       !- Zone Humidistat Humidification Set Point Schedule Name
  ,                                       !- Design Zone Air Distribution Effectiveness in Cooling Mode
  ,                                       !- Design Zone Air Distribution Effectiveness in Heating Mode
  ,                                       !- Design Zone Secondary Recirculation Fraction {dimensionless}
  ,                                       !- Design Minimum Zone Ventilation Efficiency {dimensionless}
  Coincident;                             !- Sizing Option

OS:ZoneHVAC:EquipmentList,
  {fe775d9a-5f54-4cc1-8d3d-00cf71916527}, !- Handle
  Zone HVAC Equipment List 1,             !- Name
  {edd59ada-3dc6-44c1-ba31-245c94457407}, !- Thermal Zone
  ,                                       !- Load Distribution Scheme
  {da8f7878-f410-4b2f-9396-8b4a3a96b095}, !- Zone Equipment 1
  1,                                      !- Zone Equipment Cooling Sequence 1
  1,                                      !- Zone Equipment Heating or No-Load Sequence 1
  {dee953c0-06f2-49b0-9311-45abb6963e35}, !- Zone Equipment Sequential Cooling Fraction Schedule Name 1
  {9dfe4ae6-91d3-4055-8b17-122843be81ea}; !- Zone Equipment Sequential Heating Fraction Schedule Name 1

OS:AdditionalProperties,
  {eb62895d-6386-4089-848a-7afa1b05557b}, !- Handle
  {edd59ada-3dc6-44c1-ba31-245c94457407}, !- Object Name
  ObjectType,                             !- Feature Name 1
  String,                                 !- Feature Data Type 1
  conditioned space;                      !- Feature Value 1

OS:Space,
  {172f23b6-9f53-4c29-9946-d62c1c6d2e2e}, !- Handle
  conditioned space 1,                    !- Name
  ,                                       !- Space Type Name
  ,                                       !- Default Construction Set Name
  ,                                       !- Default Schedule Set Name
  ,                                       !- Direction of Relative North {deg}
  ,                                       !- X Origin {m}
  ,                                       !- Y Origin {m}
  ,                                       !- Z Origin {m}
  ,                                       !- Building Story Name
  {edd59ada-3dc6-44c1-ba31-245c94457407}, !- Thermal Zone Name
  ,                                       !- Part of Total Floor Area
  ,                                       !- Design Specification Outdoor Air Object Name
  ,                                       !- Building Unit Name
  346.03186535424;                        !- Volume {m3}

OS:Schedule:Ruleset,
  {4543d0ef-66b9-45bb-a8df-0d6c77d1b06f}, !- Handle
  heating setpoint,                       !- Name
  {809e9d46-2320-4095-aa39-9eb21ab4b7fe}, !- Schedule Type Limits Name
  {feae333c-9f7c-4e88-95cb-8bde3c871762}; !- Default Day Schedule Name

OS:Schedule:Day,
  {feae333c-9f7c-4e88-95cb-8bde3c871762}, !- Handle
  heating setpoint default day,           !- Name
  {809e9d46-2320-4095-aa39-9eb21ab4b7fe}, !- Schedule Type Limits Name
  ,                                       !- Interpolate to Timestep
  24,                                     !- Hour 1
  0,                                      !- Minute 1
  0;                                      !- Value Until Time 1

OS:Schedule:Rule,
  {e2b6d1b1-d6e9-4bd5-a457-02e69cc7870d}, !- Handle
  heating setpoint allday rule,           !- Name
  {4543d0ef-66b9-45bb-a8df-0d6c77d1b06f}, !- Schedule Ruleset Name
  0,                                      !- Rule Order
  {6d109dc3-3fee-4229-bb30-a3413c92a4aa}, !- Day Schedule Name
  Yes,                                    !- Apply Sunday
  Yes,                                    !- Apply Monday
  Yes,                                    !- Apply Tuesday
  Yes,                                    !- Apply Wednesday
  Yes,                                    !- Apply Thursday
  Yes,                                    !- Apply Friday
  Yes,                                    !- Apply Saturday
  DateRange,                              !- Date Specification Type
  1,                                      !- Start Month
  1,                                      !- Start Day
  12,                                     !- End Month
  31;                                     !- End Day

OS:Schedule:Day,
  {6d109dc3-3fee-4229-bb30-a3413c92a4aa}, !- Handle
  heating setpoint day,                   !- Name
  {809e9d46-2320-4095-aa39-9eb21ab4b7fe}, !- Schedule Type Limits Name
  ,                                       !- Interpolate to Timestep
  24,                                     !- Hour 1
  0,                                      !- Minute 1
  20;                                     !- Value Until Time 1

OS:Schedule:Ruleset,
  {fd64acf3-ceae-4870-9762-b62137f87465}, !- Handle
  cooling setpoint,                       !- Name
  {809e9d46-2320-4095-aa39-9eb21ab4b7fe}, !- Schedule Type Limits Name
  {338fce06-be24-4236-9c1a-d347c550606e}; !- Default Day Schedule Name

OS:Schedule:Day,
  {338fce06-be24-4236-9c1a-d347c550606e}, !- Handle
  cooling setpoint default day,           !- Name
  {809e9d46-2320-4095-aa39-9eb21ab4b7fe}, !- Schedule Type Limits Name
  ,                                       !- Interpolate to Timestep
  24,                                     !- Hour 1
  0,                                      !- Minute 1
  0;                                      !- Value Until Time 1

OS:Schedule:Rule,
  {2c6021fd-6ce3-4168-9c23-cf650b9e7fb6}, !- Handle
  cooling setpoint allday rule,           !- Name
  {fd64acf3-ceae-4870-9762-b62137f87465}, !- Schedule Ruleset Name
  0,                                      !- Rule Order
  {fcce5b73-6d99-42be-8a02-f598b58efe99}, !- Day Schedule Name
  Yes,                                    !- Apply Sunday
  Yes,                                    !- Apply Monday
  Yes,                                    !- Apply Tuesday
  Yes,                                    !- Apply Wednesday
  Yes,                                    !- Apply Thursday
  Yes,                                    !- Apply Friday
  Yes,                                    !- Apply Saturday
  DateRange,                              !- Date Specification Type
  1,                                      !- Start Month
  1,                                      !- Start Day
  12,                                     !- End Month
  31;                                     !- End Day

OS:Schedule:Day,
  {fcce5b73-6d99-42be-8a02-f598b58efe99}, !- Handle
  cooling setpoint day,                   !- Name
  {809e9d46-2320-4095-aa39-9eb21ab4b7fe}, !- Schedule Type Limits Name
  ,                                       !- Interpolate to Timestep
  24,                                     !- Hour 1
  0,                                      !- Minute 1
  25.5555555555556;                       !- Value Until Time 1

OS:ThermostatSetpoint:DualSetpoint,
  {65eb4fb3-78ef-4728-8857-cdb521985bb6}, !- Handle
  conditioned space temperature setpoint, !- Name
  {4543d0ef-66b9-45bb-a8df-0d6c77d1b06f}, !- Heating Setpoint Temperature Schedule Name
  {fd64acf3-ceae-4870-9762-b62137f87465}, !- Cooling Setpoint Temperature Schedule Name
  0;                                      !- Temperature Difference Between Cutout And Setpoint {deltaC}

OS:ScheduleTypeLimits,
  {809e9d46-2320-4095-aa39-9eb21ab4b7fe}, !- Handle
  Temperature,                            !- Name
  ,                                       !- Lower Limit Value
  ,                                       !- Upper Limit Value
  Continuous,                             !- Numeric Type
  Temperature;                            !- Unit Type

OS:Surface,
  {50aa1b1f-e38a-4b7d-b398-624e2737329c}, !- Handle
  Roof1,                                  !- Name
  RoofCeiling,                            !- Surface Type
  {437d5d58-0ed6-4635-a9b2-0719b1848182}, !- Construction Name
  {172f23b6-9f53-4c29-9946-d62c1c6d2e2e}, !- Space Name
  Outdoors,                               !- Outside Boundary Condition
  ,                                       !- Outside Boundary Condition Object
  SunExposed,                             !- Sun Exposure
  WindExposed,                            !- Wind Exposure
  ,                                       !- View Factor to Ground
  ,                                       !- Number of Vertices
  -27.1507941683368, 33.2208099683368, 2.4384, !- X,Y,Z Vertex 1 {m}
  -27.1507941683368, 25.2543851312597, 6.42161241853859, !- X,Y,Z Vertex 2 {m}
  -18.2440604316632, 25.2543851312596, 6.42161241853859, !- X,Y,Z Vertex 3 {m}
  -18.2440604316632, 33.2208099683368, 2.4384; !- X,Y,Z Vertex 4 {m}

OS:AdditionalProperties,
  {f5b7043a-b5f3-4061-8886-f0eec1870692}, !- Handle
  {50aa1b1f-e38a-4b7d-b398-624e2737329c}, !- Object Name
  Length,                                 !- Feature Name 1
  Double,                                 !- Feature Data Type 1
  29.221567377538118,                     !- Feature Value 1
  Width,                                  !- Feature Name 2
  Double,                                 !- Feature Data Type 2
  29.221567377538118,                     !- Feature Value 2
  Azimuth,                                !- Feature Name 3
  Integer,                                !- Feature Data Type 3
  0,                                      !- Feature Value 3
  Tilt,                                   !- Feature Name 4
  Double,                                 !- Feature Data Type 4
  0.5,                                    !- Feature Value 4
  SurfaceType,                            !- Feature Name 5
  String,                                 !- Feature Data Type 5
  Roof;                                   !- Feature Value 5

OS:Material,
  {96f0ae83-d2f2-4b61-b297-ade5d7c582a2}, !- Handle
  asphalt or fiberglass shingles,         !- Name
  Rough,                                  !- Roughness
  0.00635,                                !- Thickness {m}
  0.162714,                               !- Conductivity {W/m-K}
  1121.4,                                 !- Density {kg/m3}
  1465.45,                                !- Specific Heat {J/kg-K}
  0.9,                                    !- Thermal Absorptance
  0.85,                                   !- Solar Absorptance
  0.85;                                   !- Visible Absorptance

OS:Material,
  {f659797b-3832-4122-893a-ab74ce9ad6d2}, !- Handle
  roof stud and cavity,                   !- Name
  Rough,                                  !- Roughness
  0.0889,                                 !- Thickness {m}
  0.468249472857624,                      !- Conductivity {W/m-K}
  50.32683,                               !- Density {kg/m3}
  1063.80987585548,                       !- Specific Heat {J/kg-K}
  0.9,                                    !- Thermal Absorptance
  0.7,                                    !- Solar Absorptance
  0.7;                                    !- Visible Absorptance

OS:Material,
  {083a6d5c-8f31-4975-b16f-9d022a070725}, !- Handle
  gypsum board,                           !- Name
  Rough,                                  !- Roughness
  0.00254,                                !- Thickness {m}
  0.1602906,                              !- Conductivity {W/m-K}
  801,                                    !- Density {kg/m3}
  837.4,                                  !- Specific Heat {J/kg-K}
  0.9,                                    !- Thermal Absorptance
  0.6,                                    !- Solar Absorptance
  0.6;                                    !- Visible Absorptance

OS:Construction,
  {437d5d58-0ed6-4635-a9b2-0719b1848182}, !- Handle
  Roof1 construction,                     !- Name
  ,                                       !- Surface Rendering Name
  {96f0ae83-d2f2-4b61-b297-ade5d7c582a2}, !- Layer 1
  {f659797b-3832-4122-893a-ab74ce9ad6d2}, !- Layer 2
  {083a6d5c-8f31-4975-b16f-9d022a070725}; !- Layer 3

OS:Surface,
  {d4c66d0d-6da0-491d-b757-82e4618a3fd4}, !- Handle
  Roof2,                                  !- Name
  RoofCeiling,                            !- Surface Type
  {fa1fc459-7a80-4b21-982d-7579f76161d5}, !- Construction Name
  {172f23b6-9f53-4c29-9946-d62c1c6d2e2e}, !- Space Name
  Outdoors,                               !- Outside Boundary Condition
  ,                                       !- Outside Boundary Condition Object
  SunExposed,                             !- Sun Exposure
  WindExposed,                            !- Wind Exposure
  ,                                       !- View Factor to Ground
  ,                                       !- Number of Vertices
  -24.3140762316632, -33.2208099683368, 2.4384, !- X,Y,Z Vertex 1 {m}
  -24.3140762316632, -25.2543851312597, 6.42161241853859, !- X,Y,Z Vertex 2 {m}
  -33.2208099683368, -25.2543851312597, 6.42161241853859, !- X,Y,Z Vertex 3 {m}
  -33.2208099683368, -33.2208099683368, 2.4384; !- X,Y,Z Vertex 4 {m}

OS:AdditionalProperties,
  {84871cb6-3ad8-4d32-9f9b-25d2de45adf5}, !- Handle
  {d4c66d0d-6da0-491d-b757-82e4618a3fd4}, !- Object Name
  Length,                                 !- Feature Name 1
  Double,                                 !- Feature Data Type 1
  29.221567377538118,                     !- Feature Value 1
  Width,                                  !- Feature Name 2
  Double,                                 !- Feature Data Type 2
  29.221567377538118,                     !- Feature Value 2
  Azimuth,                                !- Feature Name 3
  Integer,                                !- Feature Data Type 3
  180,                                    !- Feature Value 3
  Tilt,                                   !- Feature Name 4
  Double,                                 !- Feature Data Type 4
  0.5,                                    !- Feature Value 4
  SurfaceType,                            !- Feature Name 5
  String,                                 !- Feature Data Type 5
  Roof;                                   !- Feature Value 5

OS:Construction,
  {fa1fc459-7a80-4b21-982d-7579f76161d5}, !- Handle
  Roof2 construction,                     !- Name
  ,                                       !- Surface Rendering Name
  {96f0ae83-d2f2-4b61-b297-ade5d7c582a2}, !- Layer 1
  {f659797b-3832-4122-893a-ab74ce9ad6d2}, !- Layer 2
  {083a6d5c-8f31-4975-b16f-9d022a070725}; !- Layer 3

OS:Surface,
  {39446d55-c825-4c6e-a6db-2ddce7ce414c}, !- Handle
  Wall1,                                  !- Name
  Wall,                                   !- Surface Type
  {0eeff309-fb94-4261-aa14-58e787ba66b6}, !- Construction Name
  {172f23b6-9f53-4c29-9946-d62c1c6d2e2e}, !- Space Name
  Outdoors,                               !- Outside Boundary Condition
  ,                                       !- Outside Boundary Condition Object
  SunExposed,                             !- Sun Exposure
  WindExposed,                            !- Wind Exposure
  ,                                       !- View Factor to Ground
  ,                                       !- Number of Vertices
  -32.2917795683368, 33.2208099683368, 0, !- X,Y,Z Vertex 1 {m}
  -32.2917795683368, 33.2208099683368, 4.8768, !- X,Y,Z Vertex 2 {m}
  -28.0798245683368, 33.2208099683368, 4.8768, !- X,Y,Z Vertex 3 {m}
  -28.0798245683368, 33.2208099683368, 0; !- X,Y,Z Vertex 4 {m}

OS:AdditionalProperties,
  {a0e94c08-ad2f-40ec-b322-c28e43631299}, !- Handle
  {39446d55-c825-4c6e-a6db-2ddce7ce414c}, !- Object Name
  Length,                                 !- Feature Name 1
  Double,                                 !- Feature Data Type 1
  13.81875,                               !- Feature Value 1
  Azimuth,                                !- Feature Name 2
  Integer,                                !- Feature Data Type 2
  0,                                      !- Feature Value 2
  Tilt,                                   !- Feature Name 3
  Double,                                 !- Feature Data Type 3
  90,                                     !- Feature Value 3
  SurfaceType,                            !- Feature Name 4
  String,                                 !- Feature Data Type 4
  Wall;                                   !- Feature Value 4

OS:Material,
  {61bb7b08-1ae0-434a-93b1-2cc2db160388}, !- Handle
  wood siding,                            !- Name
  Rough,                                  !- Roughness
  0.0254,                                 !- Thickness {m}
  0.1024175,                              !- Conductivity {W/m-K}
  544.68,                                 !- Density {kg/m3}
  1172.36,                                !- Specific Heat {J/kg-K}
  0.9,                                    !- Thermal Absorptance
  0.7,                                    !- Solar Absorptance
  0.7;                                    !- Visible Absorptance

OS:Material,
  {cdbbba16-c50b-45d5-8ea9-5a4dc4127f9c}, !- Handle
  osb sheathing 0.5 in.,                  !- Name
  Rough,                                  !- Roughness
  0.0127,                                 !- Thickness {m}
  0.1154577,                              !- Conductivity {W/m-K}
  512.64,                                 !- Density {kg/m3}
  1214.23,                                !- Specific Heat {J/kg-K}
  0.9,                                    !- Thermal Absorptance
  0.7,                                    !- Solar Absorptance
  0.7;                                    !- Visible Absorptance

OS:Material,
  {76850c58-b41f-4fdf-869f-0e3e8424deff}, !- Handle
  wall stud and cavity,                   !- Name
  Rough,                                  !- Roughness
  0.1397,                                 !- Thickness {m}
  0.0929021674204099,                     !- Conductivity {W/m-K}
  139.0536,                               !- Density {kg/m3}
  1170.23755760369,                       !- Specific Heat {J/kg-K}
  0.9,                                    !- Thermal Absorptance
  0.7,                                    !- Solar Absorptance