
OS:Version,
  {e1569fd5-297e-4a82-b32a-d8d34f5f5ca4}, !- Handle
  3.10.0;                                 !- Version Identifier

OS:SimulationControl,
  {df8afeb9-f980-4055-b656-9ec91984dba1}, !- Handle
  ,                                       !- Do Zone Sizing Calculation
  ,                                       !- Do System Sizing Calculation
  ,                                       !- Do Plant Sizing Calculation
  No;                                     !- Run Simulation for Sizing Periods

OS:Timestep,
  {05fabf59-fb20-410d-b209-f088eecaa572}, !- Handle
  1;                                      !- Number of Timesteps per Hour

OS:ShadowCalculation,
  {b0efde4f-ff7c-48d3-92f8-229a20b939e7}, !- Handle
  PolygonClipping,                        !- Shading Calculation Method
  ,                                       !- Shading Calculation Update Frequency Method
  20,                                     !- Shading Calculation Update Frequency
  200,                                    !- Maximum Figures in Shadow Overlap Calculations
  ,                                       !- Polygon Clipping Algorithm
  512,                                    !- Pixel Counting Resolution
  ,                                       !- Sky Diffuse Modeling Algorithm
  No,                                     !- Output External Shading Calculation Results
  No,                                     !- Disable Self-Shading Within Shading Zone Groups
  No;                                     !- Disable Self-Shading From Shading Zone Groups to Other Zones

OS:SurfaceConvectionAlgorithm:Outside,
  {2c04ee17-dbeb-4590-a319-900eeff6f433}, !- Handle
  DOE-2;                                  !- Algorithm

OS:SurfaceConvectionAlgorithm:Inside,
  {9bc3451f-43fa-4157-8fba-3d6318048e68}, !- Handle
  TARP;                                   !- Algorithm

OS:ZoneCapacitanceMultiplier:ResearchSpecial,
  {e40f33f2-caac-4e73-8b08-95da59a0e926}, !- Handle
  7,                                      !- Temperature Capacity Multiplier
  15,                                     !- Humidity Capacity Multiplier
  ;                                       !- Carbon Dioxide Capacity Multiplier

OS:ConvergenceLimits,
  {df10a85c-ee59-4018-a4de-75020d327187}, !- Handle
  0;                                      !- Minimum System Timestep {minutes}

OS:RunPeriod,
  {6a1dcb97-9388-4d8a-aa11-2dd4fa782c0f}, !- Handle
  Run Period 1,                           !- Name
  1,                                      !- Begin Month
  1,                                      !- Begin Day of Month
  12,                                     !- End Month
  31,                                     !- End Day of Month
  ,                                       !- Use Weather File Holidays and Special Days
  ,                                       !- Use Weather File Daylight Saving Period
  ,                                       !- Apply Weekend Holiday Rule
  ,                                       !- Use Weather File Rain Indicators
  ,                                       !- Use Weather File Snow Indicators
  ;                                       !- Number of Times Runperiod to be Repeated

OS:PerformancePrecisionTradeoffs,
  {3d45d4e5-6dd8-49a7-87f3-2908c139fbef}, !- Handle
  ,                                       !- Use Coil Direct Solutions
  CarrollMRT;                             !- Zone Radiant Exchange Algorithm

OS:WeatherFile,
  {200dc127-5370-48e1-b791-b926d5b0067f}, !- Handle
  Buffalo Niagara Intl Ap,                !- City
  NY,                                     !- State Province Region
  USA,                                    !- Country
  TMY3,                                   !- Data Source
  725280,                                 !- WMO Number
  42.93,                                  !- Latitude {deg}
  -78.73,                                 !- Longitude {deg}
  -5,                                     !- Time Zone {hr}
  215,                                    !- Elevation {m}
  /Users/nmoore/github/urbanopt-example-geojson-project/example_project/weather/USA_NY_Buffalo-Greater.Buffalo.Intl.AP.725280_TMY3.epw, !- Url
  6B50E0FF,                               !- Checksum
  ,                                       !- Start Date Actual Year
  Sunday;                                 !- Start Day of Week

OS:YearDescription,
  {92a71e20-fee4-466f-a66c-7fa15c96c072}, !- Handle
  2007,                                   !- Calendar Year
  ,                                       !- Day of Week for Start Day
  ;                                       !- Is Leap Year

OS:Site,
  {31291a99-a093-4fde-91a1-5b315e2e03b5}, !- Handle
  Buffalo Niagara Intl Ap_NY,             !- Name
  42.93,                                  !- Latitude {deg}
  -78.73,                                 !- Longitude {deg}
  -5,                                     !- Time Zone {hr}
  215,                                    !- Elevation {m}
  Suburbs,                                !- Terrain
  Yes;                                    !- Keep Site Location Information

OS:RunPeriodControl:DaylightSavingTime,
  {e5176dc4-b7d1-4a7e-aebe-97f1bbd1f0a5}, !- Handle
  Mar 12,                                 !- Start Date
  Nov 5;                                  !- End Date

OS:Site:GroundTemperature:Shallow,
  {978746a1-2e92-4166-aed0-11b8f3937ab3}, !- Handle
  4.30207395723828,                       !- January Surface Ground Temperature {C}
  2.29327249652502,                       !- February Surface Ground Temperature {C}
  2.13240047156047,                       !- March Surface Ground Temperature {C}
  3.08567940719286,                       !- April Surface Ground Temperature {C}
  6.91256312497526,                       !- May Surface Ground Temperature {C}
  10.7216195949507,                       !- June Surface Ground Temperature {C}
  14.0238679822574,                       !- July Surface Ground Temperature {C}
  16.1157611184724,                       !- August Surface Ground Temperature {C}
  16.2934789303462,                       !- September Surface Ground Temperature {C}
  14.5920754632847,                       !- October Surface Ground Temperature {C}
  11.374036348653,                        !- November Surface Ground Temperature {C}
  7.68182621661674;                       !- December Surface Ground Temperature {C}

OS:ThermalZone,
  {7892bd09-f6bb-477f-8ed4-6744598c7213}, !- Handle
  conditioned space,                      !- Name
  1,                                      !- Multiplier
  ,                                       !- Ceiling Height {m}
  346.03186535424,                        !- Volume {m3}
  ,                                       !- Floor Area {m2}
  ,                                       !- Zone Inside Convection Algorithm
  ,                                       !- Zone Outside Convection Algorithm
  ,                                       !- Zone Conditioning Equipment List Name
  {f1cb5bb5-0236-46ee-acb5-7a3f36e13efc}, !- Zone Air Inlet Port List
  {6085949e-54be-4873-b88f-626931182bce}, !- Zone Air Exhaust Port List
  {abd5965b-c118-4958-a6bd-e63b82535226}, !- Zone Air Node Name
  {53ebcbac-b28d-4560-a8ac-08eac356e63c}, !- Zone Return Air Port List
  ,                                       !- Primary Daylighting Control Name
  ,                                       !- Fraction of Zone Controlled by Primary Daylighting Control
  ,                                       !- Secondary Daylighting Control Name
  ,                                       !- Fraction of Zone Controlled by Secondary Daylighting Control
  ,                                       !- Illuminance Map Name
  ,                                       !- Group Rendering Name
  {5dc157d8-1a32-4b80-b915-4ddccf386d3c}, !- Thermostat Name
  No;                                     !- Use Ideal Air Loads

OS:Node,
  {5492e443-1674-4b9d-a0f4-ab1fd2048b6d}, !- Handle
  Node 1,                                 !- Name
  {abd5965b-c118-4958-a6bd-e63b82535226}, !- Inlet Port
  ;                                       !- Outlet Port

OS:Connection,
  {abd5965b-c118-4958-a6bd-e63b82535226}, !- Handle
  {7892bd09-f6bb-477f-8ed4-6744598c7213}, !- Source Object
  11,                                     !- Outlet Port
  {5492e443-1674-4b9d-a0f4-ab1fd2048b6d}, !- Target Object
  2;                                      !- Inlet Port

OS:PortList,
  {f1cb5bb5-0236-46ee-acb5-7a3f36e13efc}, !- Handle
  {7892bd09-f6bb-477f-8ed4-6744598c7213}, !- HVAC Component
  {357db49b-eb3e-43ed-8a3b-e2ad38ceb4bc}; !- Port 1

OS:PortList,
  {6085949e-54be-4873-b88f-626931182bce}, !- Handle
  {7892bd09-f6bb-477f-8ed4-6744598c7213}; !- HVAC Component

OS:PortList,
  {53ebcbac-b28d-4560-a8ac-08eac356e63c}, !- Handle
  {7892bd09-f6bb-477f-8ed4-6744598c7213}, !- HVAC Component
  {2fdc4796-47dd-48ed-b82a-be82e29cbbe7}; !- Port 1

OS:Sizing:Zone,
  {8b3a0c7a-d6c6-4676-9863-4e7c0d4fc75d}, !- Handle
  {7892bd09-f6bb-477f-8ed4-6744598c7213}, !- Zone or ZoneList Name
  SupplyAirTemperature,                   !- Zone Cooling Design Supply Air Temperature Input Method
  14,                                     !- Zone Cooling Design Supply Air Temperature {C}
  11.11,                                  !- Zone Cooling Design Supply Air Temperature Difference {deltaC}
  SupplyAirTemperature,                   !- Zone Heating Design Supply Air Temperature Input Method
  40,                                     !- Zone Heating Design Supply Air Temperature {C}
  11.11,                                  !- Zone Heating Design Supply Air Temperature Difference {deltaC}
  0.0085,                                 !- Zone Cooling Design Supply Air Humidity Ratio {kg-H2O/kg-air}
  0.008,                                  !- Zone Heating Design Supply Air Humidity Ratio {kg-H2O/kg-air}
  ,                                       !- Zone Heating Sizing Factor
  ,                                       !- Zone Cooling Sizing Factor
  DesignDay,                              !- Cooling Design Air Flow Method
  ,                                       !- Cooling Design Air Flow Rate {m3/s}
  ,                                       !- Cooling Minimum Air Flow per Zone Floor Area {m3/s-m2}
  ,                                       !- Cooling Minimum Air Flow {m3/s}
  ,                                       !- Cooling Minimum Air Flow Fraction
  DesignDay,                              !- Heating Design Air Flow Method
  ,                                       !- Heating Design Air Flow Rate {m3/s}
  ,                                       !- Heating Maximum Air Flow per Zone Floor Area {m3/s-m2}
  ,                                       !- Heating Maximum Air Flow {m3/s}
  ,                                       !- Heating Maximum Air Flow Fraction
  No,                                     !- Account for Dedicated Outdoor Air System
  NeutralSupplyAir,                       !- Dedicated Outdoor Air System Control Strategy
  autosize,                               !- Dedicated Outdoor Air Low Setpoint Temperature for Design {C}
  autosize,                               !- Dedicated Outdoor Air High Setpoint Temperature for Design {C}
  Sensible Load Only No Latent Load,      !- Zone Load Sizing Method
  HumidityRatioDifference,                !- Zone Latent Cooling Design Supply Air Humidity Ratio Input Method
  ,                                       !- Zone Dehumidification Design Supply Air Humidity Ratio {kgWater/kgDryAir}
  0.005,                                  !- Zone Cooling Design Supply Air Humidity Ratio Difference {kgWater/kgDryAir}
  HumidityRatioDifference,                !- Zone Latent Heating Design Supply Air Humidity Ratio Input Method
  ,                                       !- Zone Humidification Design Supply Air Humidity Ratio {kgWater/kgDryAir}
  0.005,                                  !- Zone Humidification Design Supply Air Humidity Ratio Difference {kgWater/kgDryAir}
  ,                                       !- Zone Humidistat Dehumidification Set Point Schedule Name
  ,                                       !- Zone Humidistat Humidification Set Point Schedule Name
  ,                                       !- Design Zone Air Distribution Effectiveness in Cooling Mode
  ,                                       !- Design Zone Air Distribution Effectiveness in Heating Mode
  ,                                       !- Design Zone Secondary Recirculation Fraction {dimensionless}
  ,                                       !- Design Minimum Zone Ventilation Efficiency {dimensionless}
  Coincident;                             !- Sizing Option

OS:ZoneHVAC:EquipmentList,
  {d4d35868-ce95-4e46-8502-f2061c8ae15d}, !- Handle
  Zone HVAC Equipment List 1,             !- Name
  {7892bd09-f6bb-477f-8ed4-6744598c7213}, !- Thermal Zone
  ,                                       !- Load Distribution Scheme
  {6ee3be88-ed70-47df-9b5c-95f85dca8dec}, !- Zone Equipment 1
  1,                                      !- Zone Equipment Cooling Sequence 1
  1,                                      !- Zone Equipment Heating or No-Load Sequence 1
  {c6111369-e3c9-435d-bd37-ade8e5cbe5b1}, !- Zone Equipment Sequential Cooling Fraction Schedule Name 1
  {ca2c8b11-0bf3-41f5-bca5-5be5d10ff003}; !- Zone Equipment Sequential Heating Fraction Schedule Name 1

OS:AdditionalProperties,
  {71cc7c97-193e-4866-b4e0-4cbc5cee7d8c}, !- Handle
  {7892bd09-f6bb-477f-8ed4-6744598c7213}, !- Object Name
  ObjectType,                             !- Feature Name 1
  String,                                 !- Feature Data Type 1
  conditioned space;                      !- Feature Value 1

OS:Space,
  {c33f876d-3f38-4888-8bf2-4373cbb3ba7f}, !- Handle
  conditioned space 1,                    !- Name
  ,                                       !- Space Type Name
  ,                                       !- Default Construction Set Name
  ,                                       !- Default Schedule Set Name
  ,                                       !- Direction of Relative North {deg}
  ,                                       !- X Origin {m}
  ,                                       !- Y Origin {m}
  ,                                       !- Z Origin {m}
  ,                                       !- Building Story Name
  {7892bd09-f6bb-477f-8ed4-6744598c7213}, !- Thermal Zone Name
  ,                                       !- Part of Total Floor Area
  ,                                       !- Design Specification Outdoor Air Object Name
  ,                                       !- Building Unit Name
  346.03186535424;                        !- Volume {m3}

OS:Schedule:Ruleset,
  {627eea13-2477-46e6-8611-f64ce44a882c}, !- Handle
  heating setpoint,                       !- Name
  {6614c57a-970b-4718-8c2f-68ccc3da8c13}, !- Schedule Type Limits Name
  {510e9883-4956-462c-8199-13a9f59bde87}; !- Default Day Schedule Name

OS:Schedule:Day,
  {510e9883-4956-462c-8199-13a9f59bde87}, !- Handle
  heating setpoint default day,           !- Name
  {6614c57a-970b-4718-8c2f-68ccc3da8c13}, !- Schedule Type Limits Name
  ,                                       !- Interpolate to Timestep
  24,                                     !- Hour 1
  0,                                      !- Minute 1
  0;                                      !- Value Until Time 1

OS:Schedule:Rule,
  {6b2d6362-bdb7-452e-97fa-ae10dd1f9605}, !- Handle
  heating setpoint allday rule,           !- Name
  {627eea13-2477-46e6-8611-f64ce44a882c}, !- Schedule Ruleset Name
  0,                                      !- Rule Order
  {f33ca1d1-b380-4e81-9887-52d020444a76}, !- Day Schedule Name
  Yes,                                    !- Apply Sunday
  Yes,                                    !- Apply Monday
  Yes,                                    !- Apply Tuesday
  Yes,                                    !- Apply Wednesday
  Yes,                                    !- Apply Thursday
  Yes,                                    !- Apply Friday
  Yes,                                    !- Apply Saturday
  DateRange,                              !- Date Specification Type
  1,                                      !- Start Month
  1,                                      !- Start Day
  12,                                     !- End Month
  31;                                     !- End Day

OS:Schedule:Day,
  {f33ca1d1-b380-4e81-9887-52d020444a76}, !- Handle
  heating setpoint day,                   !- Name
  {6614c57a-970b-4718-8c2f-68ccc3da8c13}, !- Schedule Type Limits Name
  ,                                       !- Interpolate to Timestep
  24,                                     !- Hour 1
  0,                                      !- Minute 1
  20;                                     !- Value Until Time 1

OS:Schedule:Ruleset,
  {62d7193b-1380-4402-87a8-12efb73a7c97}, !- Handle
  cooling setpoint,                       !- Name
  {6614c57a-970b-4718-8c2f-68ccc3da8c13}, !- Schedule Type Limits Name
  {227560d8-9f4b-4b92-ab56-639d47eb3e4c}; !- Default Day Schedule Name

OS:Schedule:Day,
  {227560d8-9f4b-4b92-ab56-639d47eb3e4c}, !- Handle
  cooling setpoint default day,           !- Name
  {6614c57a-970b-4718-8c2f-68ccc3da8c13}, !- Schedule Type Limits Name
  ,                                       !- Interpolate to Timestep
  24,                                     !- Hour 1
  0,                                      !- Minute 1
  0;                                      !- Value Until Time 1

OS:Schedule:Rule,
  {ad69f032-32f8-4bf3-a1f8-9c589e16d0f9}, !- Handle
  cooling setpoint allday rule,           !- Name
  {62d7193b-1380-4402-87a8-12efb73a7c97}, !- Schedule Ruleset Name
  0,                                      !- Rule Order
  {0c98d8d1-f85f-402d-83b5-cf83d4251f62}, !- Day Schedule Name
  Yes,                                    !- Apply Sunday
  Yes,                                    !- Apply Monday
  Yes,                                    !- Apply Tuesday
  Yes,                                    !- Apply Wednesday
  Yes,                                    !- Apply Thursday
  Yes,                                    !- Apply Friday
  Yes,                                    !- Apply Saturday
  DateRange,                              !- Date Specification Type
  1,                                      !- Start Month
  1,                                      !- Start Day
  12,                                     !- End Month
  31;                                     !- End Day

OS:Schedule:Day,
  {0c98d8d1-f85f-402d-83b5-cf83d4251f62}, !- Handle
  cooling setpoint day,                   !- Name
  {6614c57a-970b-4718-8c2f-68ccc3da8c13}, !- Schedule Type Limits Name
  ,                                       !- Interpolate to Timestep
  24,                                     !- Hour 1
  0,                                      !- Minute 1
  25.5555555555556;                       !- Value Until Time 1

OS:ThermostatSetpoint:DualSetpoint,
  {5dc157d8-1a32-4b80-b915-4ddccf386d3c}, !- Handle
  conditioned space temperature setpoint, !- Name
  {627eea13-2477-46e6-8611-f64ce44a882c}, !- Heating Setpoint Temperature Schedule Name
  {62d7193b-1380-4402-87a8-12efb73a7c97}, !- Cooling Setpoint Temperature Schedule Name
  0;                                      !- Temperature Difference Between Cutout And Setpoint {deltaC}

OS:ScheduleTypeLimits,
  {6614c57a-970b-4718-8c2f-68ccc3da8c13}, !- Handle
  Temperature,                            !- Name
  ,                                       !- Lower Limit Value
  ,                                       !- Upper Limit Value
  Continuous,                             !- Numeric Type
  Temperature;                            !- Unit Type

OS:Surface,
  {a93f08b1-5364-4998-9b54-1f6ba3bb0aba}, !- Handle
  Roof1,                                  !- Name
  RoofCeiling,                            !- Surface Type
  {894fa4ab-28a4-4feb-a82a-9062ce56f5a4}, !- Construction Name
  {c33f876d-3f38-4888-8bf2-4373cbb3ba7f}, !- Space Name
  Outdoors,                               !- Outside Boundary Condition
  ,                                       !- Outside Boundary Condition Object
  SunExposed,                             !- Sun Exposure
  WindExposed,                            !- Wind Exposure
  ,                                       !- View Factor to Ground
  ,                                       !- Number of Vertices
  -27.1507941683368, 33.2208099683368, 2.4384, !- X,Y,Z Vertex 1 {m}
  -27.1507941683368, 25.2543851312597, 6.42161241853859, !- X,Y,Z Vertex 2 {m}
  -18.2440604316632, 25.2543851312596, 6.42161241853859, !- X,Y,Z Vertex 3 {m}
  -18.2440604316632, 33.2208099683368, 2.4384; !- X,Y,Z Vertex 4 {m}

OS:AdditionalProperties,
  {872f9247-98eb-4842-b4bf-6395442f8f3c}, !- Handle
  {a93f08b1-5364-4998-9b54-1f6ba3bb0aba}, !- Object Name
  Length,                                 !- Feature Name 1
  Double,                                 !- Feature Data Type 1
  29.221567377538118,                     !- Feature Value 1
  Width,                                  !- Feature Name 2
  Double,                                 !- Feature Data Type 2
  29.221567377538118,                     !- Feature Value 2
  Azimuth,                                !- Feature Name 3
  Integer,                                !- Feature Data Type 3
  0,                                      !- Feature Value 3
  Tilt,                                   !- Feature Name 4
  Double,                                 !- Feature Data Type 4
  0.5,                                    !- Feature Value 4
  SurfaceType,                            !- Feature Name 5
  String,                                 !- Feature Data Type 5
  Roof;                                   !- Feature Value 5

OS:Material,
  {715d5eab-1e04-4348-a737-ea169ae616f9}, !- Handle
  asphalt or fiberglass shingles,         !- Name
  Rough,                                  !- Roughness
  0.00635,                                !- Thickness {m}
  0.162714,                               !- Conductivity {W/m-K}
  1121.4,                                 !- Density {kg/m3}
  1465.45,                                !- Specific Heat {J/kg-K}
  0.9,                                    !- Thermal Absorptance
  0.85,                                   !- Solar Absorptance
  0.85;                                   !- Visible Absorptance

OS:Material,
  {ad2c5548-ea9f-4279-befe-8fc4da3aba1f}, !- Handle
  roof stud and cavity,                   !- Name
  Rough,                                  !- Roughness
  0.0889,                                 !- Thickness {m}
  0.468249472857624,                      !- Conductivity {W/m-K}
  50.32683,                               !- Density {kg/m3}
  1063.80987585548,                       !- Specific Heat {J/kg-K}
  0.9,                                    !- Thermal Absorptance
  0.7,                                    !- Solar Absorptance
  0.7;                                    !- Visible Absorptance

OS:Material,
  {6a019bfd-5cbb-433f-b21b-da46e50a6ca5}, !- Handle
  gypsum board,                           !- Name
  Rough,                                  !- Roughness
  0.00254,                                !- Thickness {m}
  0.1602906,                              !- Conductivity {W/m-K}
  801,                                    !- Density {kg/m3}
  837.4,                                  !- Specific Heat {J/kg-K}
  0.9,                                    !- Thermal Absorptance
  0.6,                                    !- Solar Absorptance
  0.6;                                    !- Visible Absorptance

OS:Construction,
  {894fa4ab-28a4-4feb-a82a-9062ce56f5a4}, !- Handle
  Roof1 construction,                     !- Name
  ,                                       !- Surface Rendering Name
  {715d5eab-1e04-4348-a737-ea169ae616f9}, !- Layer 1
  {ad2c5548-ea9f-4279-befe-8fc4da3aba1f}, !- Layer 2
  {6a019bfd-5cbb-433f-b21b-da46e50a6ca5}; !- Layer 3

OS:Surface,
  {c0429013-a6b8-46e7-bc60-7e670c79679e}, !- Handle
  Roof2,                                  !- Name
  RoofCeiling,                            !- Surface Type
  {aba29221-2cfa-4d58-ae17-e867a8b706ee}, !- Construction Name
  {c33f876d-3f38-4888-8bf2-4373cbb3ba7f}, !- Space Name
  Outdoors,                               !- Outside Boundary Condition
  ,                                       !- Outside Boundary Condition Object
  SunExposed,                             !- Sun Exposure
  WindExposed,                            !- Wind Exposure
  ,                                       !- View Factor to Ground
  ,                                       !- Number of Vertices
  -24.3140762316632, -33.2208099683368, 2.4384, !- X,Y,Z Vertex 1 {m}
  -24.3140762316632, -25.2543851312597, 6.42161241853859, !- X,Y,Z Vertex 2 {m}
  -33.2208099683368, -25.2543851312597, 6.42161241853859, !- X,Y,Z Vertex 3 {m}
  -33.2208099683368, -33.2208099683368, 2.4384; !- X,Y,Z Vertex 4 {m}

OS:AdditionalProperties,
  {4e9150c1-cfdf-4b06-83ec-2abcc449d504}, !- Handle
  {c0429013-a6b8-46e7-bc60-7e670c79679e}, !- Object Name
  Length,                                 !- Feature Name 1
  Double,                                 !- Feature Data Type 1
  29.221567377538118,                     !- Feature Value 1
  Width,                                  !- Feature Name 2
  Double,                                 !- Feature Data Type 2
  29.221567377538118,                     !- Feature Value 2
  Azimuth,                                !- Feature Name 3
  Integer,                                !- Feature Data Type 3
  180,                                    !- Feature Value 3
  Tilt,                                   !- Feature Name 4
  Double,                                 !- Feature Data Type 4
  0.5,                                    !- Feature Value 4
  SurfaceType,                            !- Feature Name 5
  String,                                 !- Feature Data Type 5
  Roof;                                   !- Feature Value 5

OS:Construction,
  {aba29221-2cfa-4d58-ae17-e867a8b706ee}, !- Handle
  Roof2 construction,                     !- Name
  ,                                       !- Surface Rendering Name
  {715d5eab-1e04-4348-a737-ea169ae616f9}, !- Layer 1
  {ad2c5548-ea9f-4279-befe-8fc4da3aba1f}, !- Layer 2
  {6a019bfd-5cbb-433f-b21b-da46e50a6ca5}; !- Layer 3

OS:Surface,
  {05f8c229-a0dc-494c-abe1-085368344f93}, !- Handle
  Wall1,                                  !- Name
  Wall,                                   !- Surface Type
  {c5713f86-027a-4794-9a50-8840ddaa1d86}, !- Construction Name
  {c33f876d-3f38-4888-8bf2-4373cbb3ba7f}, !- Space Name
  Outdoors,                               !- Outside Boundary Condition
  ,                                       !- Outside Boundary Condition Object
  SunExposed,                             !- Sun Exposure
  WindExposed,                            !- Wind Exposure
  ,                                       !- View Factor to Ground
  ,                                       !- Number of Vertices
  -32.2917795683368, 33.2208099683368, 0, !- X,Y,Z Vertex 1 {m}
  -32.2917795683368, 33.2208099683368, 4.8768, !- X,Y,Z Vertex 2 {m}
  -28.0798245683368, 33.2208099683368, 4.8768, !- X,Y,Z Vertex 3 {m}
  -28.0798245683368, 33.2208099683368, 0; !- X,Y,Z Vertex 4 {m}

OS:AdditionalProperties,
  {662f5f96-5ebb-4fe7-9b98-0ec14e3dc26f}, !- Handle
  {05f8c229-a0dc-494c-abe1-085368344f93}, !- Object Name
  Length,                                 !- Feature Name 1
  Double,                                 !- Feature Data Type 1
  13.81875,                               !- Feature Value 1
  Azimuth,                                !- Feature Name 2
  Integer,                                !- Feature Data Type 2
  0,                                      !- Feature Value 2
  Tilt,                                   !- Feature Name 3
  Double,                                 !- Feature Data Type 3
  90,                                     !- Feature Value 3
  SurfaceType,                            !- Feature Name 4
  String,                                 !- Feature Data Type 4
  Wall;                                   !- Feature Value 4

OS:Material,
  {c19a55c1-6db3-4a8c-8399-9beecf077f15}, !- Handle
  wood siding,                            !- Name
  Rough,                                  !- Roughness
  0.0254,                                 !- Thickness {m}
  0.1024175,                              !- Conductivity {W/m-K}
  544.68,                                 !- Density {kg/m3}
  1172.36,                                !- Specific Heat {J/kg-K}
  0.9,                                    !- Thermal Absorptance
  0.7,                                    !- Solar Absorptance
  0.7;                                    !- Visible Absorptance

OS:Material,
  {45a8556d-dee6-4266-9035-eac9b69aea67}, !- Handle
  osb sheathing 0.5 in.,                  !- Name
  Rough,                                  !- Roughness
  0.0127,                                 !- Thickness {m}
  0.1154577,                              !- Conductivity {W/m-K}
  512.64,                                 !- Density {kg/m3}
  1214.23,                                !- Specific Heat {J/kg-K}
  0.9,                                    !- Thermal Absorptance
  0.7,                                    !- Solar Absorptance
  0.7;                                    !- Visible Absorptance

OS:Material,
  {48becc90-dabd-4010-81f7-c34a850e7004}, !- Handle
  wall stud and cavity,                   !- Name
  Rough,                                  !- Roughness
  0.1397,                                 !- Thickness {m}
  0.0929021674204099,                     !- Conductivity {W/m-K}
  139.0536,                               !- Density {kg/m3}
  1170.23755760369,                       !- Specific Heat {J/kg-K}
  0.9,                                    !- Thermal Absorptance
  0.7,                                    !- Solar Absorptance