
OS:Version,
  {3f4072ac-c552-4bc4-a157-e8d9925f5eba}, !- Handle
  3.9.0;                                  !- Version Identifier

OS:SimulationControl,
  {fb150b4c-8a1e-421f-8a20-438580bcc04b}, !- Handle
  ,                                       !- Do Zone Sizing Calculation
  ,                                       !- Do System Sizing Calculation
  ,                                       !- Do Plant Sizing Calculation
  No;                                     !- Run Simulation for Sizing Periods

OS:Timestep,
  {eecbb366-97e9-45c1-9a7e-8b3d0fd2460e}, !- Handle
  1;                                      !- Number of Timesteps per Hour

OS:ShadowCalculation,
  {8c0082cf-3b8b-4255-81ba-6243434d6aae}, !- Handle
  PolygonClipping,                        !- Shading Calculation Method
  ,                                       !- Shading Calculation Update Frequency Method
  20,                                     !- Shading Calculation Update Frequency
  200,                                    !- Maximum Figures in Shadow Overlap Calculations
  ,                                       !- Polygon Clipping Algorithm
  512,                                    !- Pixel Counting Resolution
  ,                                       !- Sky Diffuse Modeling Algorithm
  No,                                     !- Output External Shading Calculation Results
  No,                                     !- Disable Self-Shading Within Shading Zone Groups
  No;                                     !- Disable Self-Shading From Shading Zone Groups to Other Zones

OS:SurfaceConvectionAlgorithm:Outside,
  {55cb9224-ff2a-479e-99d6-d162876064f6}, !- Handle
  DOE-2;                                  !- Algorithm

OS:SurfaceConvectionAlgorithm:Inside,
  {4610cc39-25a8-4cbc-a840-b4582be814e0}, !- Handle
  TARP;                                   !- Algorithm

OS:ZoneCapacitanceMultiplier:ResearchSpecial,
  {4efc6095-431e-41ef-84a2-4372e98c6f9a}, !- Handle
  7,                                      !- Temperature Capacity Multiplier
  15,                                     !- Humidity Capacity Multiplier
  ;                                       !- Carbon Dioxide Capacity Multiplier

OS:ConvergenceLimits,
  {21d78975-9b22-4d6a-9194-745beae74bf8}, !- Handle
  0;                                      !- Minimum System Timestep {minutes}

OS:RunPeriod,
  {aa2e9e04-5b82-40d2-8cf5-923816082faa}, !- Handle
  Run Period 1,                           !- Name
  1,                                      !- Begin Month
  1,                                      !- Begin Day of Month
  12,                                     !- End Month
  31,                                     !- End Day of Month
  ,                                       !- Use Weather File Holidays and Special Days
  ,                                       !- Use Weather File Daylight Saving Period
  ,                                       !- Apply Weekend Holiday Rule
  ,                                       !- Use Weather File Rain Indicators
  ,                                       !- Use Weather File Snow Indicators
  ;                                       !- Number of Times Runperiod to be Repeated

OS:PerformancePrecisionTradeoffs,
  {4ee931af-93b9-4f28-9f00-ab25fa729865}, !- Handle
  ,                                       !- Use Coil Direct Solutions
  CarrollMRT;                             !- Zone Radiant Exchange Algorithm

OS:WeatherFile,
  {2e1ab3b2-952c-4379-b42f-df73027dfe1d}, !- Handle
  Buffalo Niagara Intl Ap,                !- City
  NY,                                     !- State Province Region
  USA,                                    !- Country
  TMY3,                                   !- Data Source
  725280,                                 !- WMO Number
  42.93,                                  !- Latitude {deg}
  -78.73,                                 !- Longitude {deg}
  -5,                                     !- Time Zone {hr}
  215,                                    !- Elevation {m}
  /Users/nmoore/github/urbanopt-example-geojson-project/example_project/weather/USA_NY_Buffalo-Greater.Buffalo.Intl.AP.725280_TMY3.epw, !- Url
  6B50E0FF,                               !- Checksum
  ,                                       !- Start Date Actual Year
  Sunday;                                 !- Start Day of Week

OS:YearDescription,
  {582738c2-6138-4dba-a663-d25891088e62}, !- Handle
  2007,                                   !- Calendar Year
  ,                                       !- Day of Week for Start Day
  ;                                       !- Is Leap Year

OS:Site,
  {0d8272e7-0e35-4965-a95d-a404254c19b0}, !- Handle
  Buffalo Niagara Intl Ap_NY,             !- Name
  42.93,                                  !- Latitude {deg}
  -78.73,                                 !- Longitude {deg}
  -5,                                     !- Time Zone {hr}
  215,                                    !- Elevation {m}
  Suburbs,                                !- Terrain
  Yes;                                    !- Keep Site Location Information

OS:RunPeriodControl:DaylightSavingTime,
  {2eafa058-fbeb-41a8-8ba5-b550938b331f}, !- Handle
  Mar 12,                                 !- Start Date
  Nov 5;                                  !- End Date

OS:Site:GroundTemperature:Shallow,
  {ebb1dad2-6282-4498-a310-d1cba09dfb78}, !- Handle
  4.30207395723828,                       !- January Surface Ground Temperature {C}
  2.29327249652502,                       !- February Surface Ground Temperature {C}
  2.13240047156047,                       !- March Surface Ground Temperature {C}
  3.08567940719286,                       !- April Surface Ground Temperature {C}
  6.91256312497526,                       !- May Surface Ground Temperature {C}
  10.7216195949507,                       !- June Surface Ground Temperature {C}
  14.0238679822574,                       !- July Surface Ground Temperature {C}
  16.1157611184724,                       !- August Surface Ground Temperature {C}
  16.2934789303462,                       !- September Surface Ground Temperature {C}
  14.5920754632847,                       !- October Surface Ground Temperature {C}
  11.374036348653,                        !- November Surface Ground Temperature {C}
  7.68182621661674;                       !- December Surface Ground Temperature {C}

OS:ThermalZone,
  {b50d41df-912b-4c61-9e59-8642c104cd10}, !- Handle
  conditioned space,                      !- Name
  1,                                      !- Multiplier
  ,                                       !- Ceiling Height {m}
  692.06373070848,                        !- Volume {m3}
  ,                                       !- Floor Area {m2}
  ,                                       !- Zone Inside Convection Algorithm
  ,                                       !- Zone Outside Convection Algorithm
  ,                                       !- Zone Conditioning Equipment List Name
  {6a8a01ae-dfa0-4d4f-ae8e-286a41ab4e2f}, !- Zone Air Inlet Port List
  {8ab7a14f-0d41-4b11-811f-46110d3a65ab}, !- Zone Air Exhaust Port List
  {f3c3906c-2681-4823-bfc1-f621cc0f7001}, !- Zone Air Node Name
  {f299bf2f-9d58-4ed0-a12f-2ffe13b44ef1}, !- Zone Return Air Port List
  ,                                       !- Primary Daylighting Control Name
  ,                                       !- Fraction of Zone Controlled by Primary Daylighting Control
  ,                                       !- Secondary Daylighting Control Name
  ,                                       !- Fraction of Zone Controlled by Secondary Daylighting Control
  ,                                       !- Illuminance Map Name
  ,                                       !- Group Rendering Name
  {6070e11b-c61f-4af0-9c18-279ad1556ca0}, !- Thermostat Name
  No;                                     !- Use Ideal Air Loads

OS:Node,
  {ca323c11-1a39-4ea3-911c-4fcad3170cfc}, !- Handle
  Node 1,                                 !- Name
  {f3c3906c-2681-4823-bfc1-f621cc0f7001}, !- Inlet Port
  ;                                       !- Outlet Port

OS:Connection,
  {f3c3906c-2681-4823-bfc1-f621cc0f7001}, !- Handle
  {b50d41df-912b-4c61-9e59-8642c104cd10}, !- Source Object
  11,                                     !- Outlet Port
  {ca323c11-1a39-4ea3-911c-4fcad3170cfc}, !- Target Object
  2;                                      !- Inlet Port

OS:PortList,
  {6a8a01ae-dfa0-4d4f-ae8e-286a41ab4e2f}, !- Handle
  {b50d41df-912b-4c61-9e59-8642c104cd10}, !- HVAC Component
  {44cc319d-e3f0-414c-9cde-6431aafff170}; !- Port 1

OS:PortList,
  {8ab7a14f-0d41-4b11-811f-46110d3a65ab}, !- Handle
  {b50d41df-912b-4c61-9e59-8642c104cd10}; !- HVAC Component

OS:PortList,
  {f299bf2f-9d58-4ed0-a12f-2ffe13b44ef1}, !- Handle
  {b50d41df-912b-4c61-9e59-8642c104cd10}, !- HVAC Component
  {914f94d4-705f-4cc0-a73e-50e836865441}; !- Port 1

OS:Sizing:Zone,
  {ec6e6c2d-3ef8-471a-8203-710f3e3fd269}, !- Handle
  {b50d41df-912b-4c61-9e59-8642c104cd10}, !- Zone or ZoneList Name
  SupplyAirTemperature,                   !- Zone Cooling Design Supply Air Temperature Input Method
  14,                                     !- Zone Cooling Design Supply Air Temperature {C}
  11.11,                                  !- Zone Cooling Design Supply Air Temperature Difference {deltaC}
  SupplyAirTemperature,                   !- Zone Heating Design Supply Air Temperature Input Method
  40,                                     !- Zone Heating Design Supply Air Temperature {C}
  11.11,                                  !- Zone Heating Design Supply Air Temperature Difference {deltaC}
  0.0085,                                 !- Zone Cooling Design Supply Air Humidity Ratio {kg-H2O/kg-air}
  0.008,                                  !- Zone Heating Design Supply Air Humidity Ratio {kg-H2O/kg-air}
  ,                                       !- Zone Heating Sizing Factor
  ,                                       !- Zone Cooling Sizing Factor
  DesignDay,                              !- Cooling Design Air Flow Method
  ,                                       !- Cooling Design Air Flow Rate {m3/s}
  ,                                       !- Cooling Minimum Air Flow per Zone Floor Area {m3/s-m2}
  ,                                       !- Cooling Minimum Air Flow {m3/s}
  ,                                       !- Cooling Minimum Air Flow Fraction
  DesignDay,                              !- Heating Design Air Flow Method
  ,                                       !- Heating Design Air Flow Rate {m3/s}
  ,                                       !- Heating Maximum Air Flow per Zone Floor Area {m3/s-m2}
  ,                                       !- Heating Maximum Air Flow {m3/s}
  ,                                       !- Heating Maximum Air Flow Fraction
  No,                                     !- Account for Dedicated Outdoor Air System
  NeutralSupplyAir,                       !- Dedicated Outdoor Air System Control Strategy
  autosize,                               !- Dedicated Outdoor Air Low Setpoint Temperature for Design {C}
  autosize,                               !- Dedicated Outdoor Air High Setpoint Temperature for Design {C}
  Sensible Load Only No Latent Load,      !- Zone Load Sizing Method
  HumidityRatioDifference,                !- Zone Latent Cooling Design Supply Air Humidity Ratio Input Method
  ,                                       !- Zone Dehumidification Design Supply Air Humidity Ratio {kgWater/kgDryAir}
  0.005,                                  !- Zone Cooling Design Supply Air Humidity Ratio Difference {kgWater/kgDryAir}
  HumidityRatioDifference,                !- Zone Latent Heating Design Supply Air Humidity Ratio Input Method
  ,                                       !- Zone Humidification Design Supply Air Humidity Ratio {kgWater/kgDryAir}
  0.005,                                  !- Zone Humidification Design Supply Air Humidity Ratio Difference {kgWater/kgDryAir}
  ,                                       !- Zone Humidistat Dehumidification Set Point Schedule Name
  ,                                       !- Zone Humidistat Humidification Set Point Schedule Name
  ,                                       !- Design Zone Air Distribution Effectiveness in Cooling Mode
  ,                                       !- Design Zone Air Distribution Effectiveness in Heating Mode
  ,                                       !- Design Zone Secondary Recirculation Fraction {dimensionless}
  ,                                       !- Design Minimum Zone Ventilation Efficiency {dimensionless}
  Coincident;                             !- Sizing Option

OS:ZoneHVAC:EquipmentList,
  {99eada02-d99b-479f-83b2-a98237c8b1a3}, !- Handle
  Zone HVAC Equipment List 1,             !- Name
  {b50d41df-912b-4c61-9e59-8642c104cd10}, !- Thermal Zone
  ,                                       !- Load Distribution Scheme
  {fa6a84e7-5cc7-484b-a8ea-93495bb00211}, !- Zone Equipment 1
  1,                                      !- Zone Equipment Cooling Sequence 1
  1,                                      !- Zone Equipment Heating or No-Load Sequence 1
  {d7b30d20-5be5-40d9-adad-0ba7d04bb2ab}, !- Zone Equipment Sequential Cooling Fraction Schedule Name 1
  {f13402e1-5bde-4784-abcf-372f0c28b2c9}; !- Zone Equipment Sequential Heating Fraction Schedule Name 1

OS:AdditionalProperties,
  {7f73658b-8b70-4cc8-9a39-33efac9b791c}, !- Handle
  {b50d41df-912b-4c61-9e59-8642c104cd10}, !- Object Name
  ObjectType,                             !- Feature Name 1
  String,                                 !- Feature Data Type 1
  conditioned space;                      !- Feature Value 1

OS:Space,
  {fa8858d6-50c0-44ec-a963-d715d739c6c6}, !- Handle
  conditioned space 1,                    !- Name
  ,                                       !- Space Type Name
  ,                                       !- Default Construction Set Name
  ,                                       !- Default Schedule Set Name
  ,                                       !- Direction of Relative North {deg}
  ,                                       !- X Origin {m}
  ,                                       !- Y Origin {m}
  ,                                       !- Z Origin {m}
  ,                                       !- Building Story Name
  {b50d41df-912b-4c61-9e59-8642c104cd10}, !- Thermal Zone Name
  ,                                       !- Part of Total Floor Area
  ,                                       !- Design Specification Outdoor Air Object Name
  ,                                       !- Building Unit Name
  692.06373070848;                        !- Volume {m3}

OS:Schedule:Ruleset,
  {22ced677-cd34-4b71-8e66-dfbfe8c7900d}, !- Handle
  heating setpoint,                       !- Name
  {f9897c3c-e137-40dc-bac4-a29c22dfa0b4}, !- Schedule Type Limits Name
  {e5d3e77c-c4d7-48b4-8020-89852cc082c1}; !- Default Day Schedule Name

OS:Schedule:Day,
  {e5d3e77c-c4d7-48b4-8020-89852cc082c1}, !- Handle
  heating setpoint default day,           !- Name
  {f9897c3c-e137-40dc-bac4-a29c22dfa0b4}, !- Schedule Type Limits Name
  ,                                       !- Interpolate to Timestep
  24,                                     !- Hour 1
  0,                                      !- Minute 1
  0;                                      !- Value Until Time 1

OS:Schedule:Rule,
  {b2aab9b3-1742-4643-9740-a1fa7eac6051}, !- Handle
  heating setpoint allday rule,           !- Name
  {22ced677-cd34-4b71-8e66-dfbfe8c7900d}, !- Schedule Ruleset Name
  0,                                      !- Rule Order
  {94b57acd-d921-44e4-a7d6-3992379e80e9}, !- Day Schedule Name
  Yes,                                    !- Apply Sunday
  Yes,                                    !- Apply Monday
  Yes,                                    !- Apply Tuesday
  Yes,                                    !- Apply Wednesday
  Yes,                                    !- Apply Thursday
  Yes,                                    !- Apply Friday
  Yes,                                    !- Apply Saturday
  DateRange,                              !- Date Specification Type
  1,                                      !- Start Month
  1,                                      !- Start Day
  12,                                     !- End Month
  31;                                     !- End Day

OS:Schedule:Day,
  {94b57acd-d921-44e4-a7d6-3992379e80e9}, !- Handle
  heating setpoint day,                   !- Name
  {f9897c3c-e137-40dc-bac4-a29c22dfa0b4}, !- Schedule Type Limits Name
  ,                                       !- Interpolate to Timestep
  24,                                     !- Hour 1
  0,                                      !- Minute 1
  20;                                     !- Value Until Time 1

OS:Schedule:Ruleset,
  {a6731890-4f49-4758-94f2-454398455e31}, !- Handle
  cooling setpoint,                       !- Name
  {f9897c3c-e137-40dc-bac4-a29c22dfa0b4}, !- Schedule Type Limits Name
  {4dbad55f-5747-47d4-a856-560aafe478c2}; !- Default Day Schedule Name

OS:Schedule:Day,
  {4dbad55f-5747-47d4-a856-560aafe478c2}, !- Handle
  cooling setpoint default day,           !- Name
  {f9897c3c-e137-40dc-bac4-a29c22dfa0b4}, !- Schedule Type Limits Name
  ,                                       !- Interpolate to Timestep
  24,                                     !- Hour 1
  0,                                      !- Minute 1
  0;                                      !- Value Until Time 1

OS:Schedule:Rule,
  {b52f7615-0ac1-4c18-8a8b-7c211f890382}, !- Handle
  cooling setpoint allday rule,           !- Name
  {a6731890-4f49-4758-94f2-454398455e31}, !- Schedule Ruleset Name
  0,                                      !- Rule Order
  {06d2dc18-2f59-4d17-aafb-10fbf5c5e575}, !- Day Schedule Name
  Yes,                                    !- Apply Sunday
  Yes,                                    !- Apply Monday
  Yes,                                    !- Apply Tuesday
  Yes,                                    !- Apply Wednesday
  Yes,                                    !- Apply Thursday
  Yes,                                    !- Apply Friday
  Yes,                                    !- Apply Saturday
  DateRange,                              !- Date Specification Type
  1,                                      !- Start Month
  1,                                      !- Start Day
  12,                                     !- End Month
  31;                                     !- End Day

OS:Schedule:Day,
  {06d2dc18-2f59-4d17-aafb-10fbf5c5e575}, !- Handle
  cooling setpoint day,                   !- Name
  {f9897c3c-e137-40dc-bac4-a29c22dfa0b4}, !- Schedule Type Limits Name
  ,                                       !- Interpolate to Timestep
  24,                                     !- Hour 1
  0,                                      !- Minute 1
  25.5555555555556;                       !- Value Until Time 1

OS:ThermostatSetpoint:DualSetpoint,
  {6070e11b-c61f-4af0-9c18-279ad1556ca0}, !- Handle
  conditioned space temperature setpoint, !- Name
  {22ced677-cd34-4b71-8e66-dfbfe8c7900d}, !- Heating Setpoint Temperature Schedule Name
  {a6731890-4f49-4758-94f2-454398455e31}, !- Cooling Setpoint Temperature Schedule Name
  0;                                      !- Temperature Difference Between Cutout And Setpoint {deltaC}

OS:ScheduleTypeLimits,
  {f9897c3c-e137-40dc-bac4-a29c22dfa0b4}, !- Handle
  Temperature,                            !- Name
  ,                                       !- Lower Limit Value
  ,                                       !- Upper Limit Value
  Continuous,                             !- Numeric Type
  Temperature;                            !- Unit Type

OS:Surface,
  {6eb33253-cb15-49f0-a198-1169a525e6e0}, !- Handle
  Roof1,                                  !- Name
  RoofCeiling,                            !- Surface Type
  {4b6cb893-62a4-446a-aec1-b6d90e787252}, !- Construction Name
  {f25ff725-c157-4dbe-9840-1b11b8409c8e}, !- Space Name
  Outdoors,                               !- Outside Boundary Condition
  ,                                       !- Outside Boundary Condition Object
  SunExposed,                             !- Sun Exposure
  WindExposed,                            !- Wind Exposure
  ,                                       !- View Factor to Ground
  ,                                       !- Number of Vertices
  -26.9347048849634, 58.0557891618865, 2.4384, !- X,Y,Z Vertex 1 {m}
  -26.9347048849634, 46.7895631136661, 8.0715130241102, !- X,Y,Z Vertex 2 {m}
  -14.3386812381136, 46.7895631136661, 8.0715130241102, !- X,Y,Z Vertex 3 {m}
  -14.3386812381136, 58.0557891618865, 2.4384; !- X,Y,Z Vertex 4 {m}

OS:AdditionalProperties,
  {a060edf2-49da-48be-9b0f-5cff25535ec3}, !- Handle
  {6eb33253-cb15-49f0-a198-1169a525e6e0}, !- Object Name
  Length,                                 !- Feature Name 1
  Double,                                 !- Feature Data Type 1
  41.325536899113608,                     !- Feature Value 1
  Width,                                  !- Feature Name 2
  Double,                                 !- Feature Data Type 2
  41.325536899113601,                     !- Feature Value 2
  Azimuth,                                !- Feature Name 3
  Integer,                                !- Feature Data Type 3
  0,                                      !- Feature Value 3
  Tilt,                                   !- Feature Name 4
  Double,                                 !- Feature Data Type 4
  0.5,                                    !- Feature Value 4
  SurfaceType,                            !- Feature Name 5
  String,                                 !- Feature Data Type 5
  Roof;                                   !- Feature Value 5

OS:ThermalZone,
  {aadbfc8e-a2d7-487b-8f2a-6372c6ea30ae}, !- Handle
  attic - vented,                         !- Name
  1,                                      !- Multiplier
  ,                                       !- Ceiling Height {m}
  356.389957095237,                       !- Volume {m3}
  ,                                       !- Floor Area {m2}
  ,                                       !- Zone Inside Convection Algorithm
  ,                                       !- Zone Outside Convection Algorithm
  ,                                       !- Zone Conditioning Equipment List Name
  {bbb1f726-4c55-4475-b456-a1d939c31c45}, !- Zone Air Inlet Port List
  {732560e8-7232-4868-84c7-4e5d87113912}, !- Zone Air Exhaust Port List
  {0cd7d9f1-1cf2-432e-8699-30d9b764bdd2}, !- Zone Air Node Name
  {ea876ad7-a8ad-442d-9c67-cbbc47fe8b31}, !- Zone Return Air Port List
  ,                                       !- Primary Daylighting Control Name
  ,                                       !- Fraction of Zone Controlled by Primary Daylighting Control
  ,                                       !- Secondary Daylighting Control Name
  ,                                       !- Fraction of Zone Controlled by Secondary Daylighting Control
  ,                                       !- Illuminance Map Name
  ,                                       !- Group Rendering Name
  ,                                       !- Thermostat Name
  No;                                     !- Use Ideal Air Loads

OS:Node,
  {93cd5132-dabf-483c-8f90-425768fc543d}, !- Handle
  Node 2,                                 !- Name
  {0cd7d9f1-1cf2-432e-8699-30d9b764bdd2}, !- Inlet Port
  ;                                       !- Outlet Port

OS:Connection,
  {0cd7d9f1-1cf2-432e-8699-30d9b764bdd2}, !- Handle
  {aadbfc8e-a2d7-487b-8f2a-6372c6ea30ae}, !- Source Object
  11,                                     !- Outlet Port
  {93cd5132-dabf-483c-8f90-425768fc543d}, !- Target Object
  2;                                      !- Inlet Port

OS:PortList,
  {bbb1f726-4c55-4475-b456-a1d939c31c45}, !- Handle
  {aadbfc8e-a2d7-487b-8f2a-6372c6ea30ae}; !- HVAC Component

OS:PortList,
  {732560e8-7232-4868-84c7-4e5d87113912}, !- Handle
  {aadbfc8e-a2d7-487b-8f2a-6372c6ea30ae}; !- HVAC Component

OS:PortList,
  {ea876ad7-a8ad-442d-9c67-cbbc47fe8b31}, !- Handle
  {aadbfc8e-a2d7-487b-8f2a-6372c6ea30ae}; !- HVAC Component

OS:Sizing:Zone,
  {09a3f994-3a6c-487b-b4ae-367a2b33f970}, !- Handle
  {aadbfc8e-a2d7-487b-8f2a-6372c6ea30ae}, !- Zone or ZoneList Name
  SupplyAirTemperature,                   !- Zone Cooling Design Supply Air Temperature Input Method
  14,                                     !- Zone Cooling Design Supply Air Temperature {C}
  11.11,                                  !- Zone Cooling Design Supply Air Temperature Difference {deltaC}
  SupplyAirTemperature,                   !- Zone Heating Design Supply Air Temperature Input Method
  40,                                     !- Zone Heating Design Supply Air Temperature {C}
  11.11,                                  !- Zone Heating Design Supply Air Temperature Difference {deltaC}
  0.0085,                                 !- Zone Cooling Design Supply Air Humidity Ratio {kg-H2O/kg-air}
  0.008,                                  !- Zone Heating Design Supply Air Humidity Ratio {kg-H2O/kg-air}
  ,                                       !- Zone Heating Sizing Factor
  ,                                       !- Zone Cooling Sizing Factor
  DesignDay,                              !- Cooling Design Air Flow Method
  ,                                       !- Cooling Design Air Flow Rate {m3/s}
  ,                                       !- Cooling Minimum Air Flow per Zone Floor Area {m3/s-m2}
  ,                                       !- Cooling Minimum Air Flow {m3/s}
  ,                                       !- Cooling Minimum Air Flow Fraction
  DesignDay,                              !- Heating Design Air Flow Method
  ,                                       !- Heating Design Air Flow Rate {m3/s}
  ,                                       !- Heating Maximum Air Flow per Zone Floor Area {m3/s-m2}
  ,                                       !- Heating Maximum Air Flow {m3/s}
  ,                                       !- Heating Maximum Air Flow Fraction
  No,                                     !- Account for Dedicated Outdoor Air System
  NeutralSupplyAir,                       !- Dedicated Outdoor Air System Control Strategy
  autosize,                               !- Dedicated Outdoor Air Low Setpoint Temperature for Design {C}
  autosize,                               !- Dedicated Outdoor Air High Setpoint Temperature for Design {C}
  Sensible Load Only No Latent Load,      !- Zone Load Sizing Method
  HumidityRatioDifference,                !- Zone Latent Cooling Design Supply Air Humidity Ratio Input Method
  ,                                       !- Zone Dehumidification Design Supply Air Humidity Ratio {kgWater/kgDryAir}
  0.005,                                  !- Zone Cooling Design Supply Air Humidity Ratio Difference {kgWater/kgDryAir}
  HumidityRatioDifference,                !- Zone Latent Heating Design Supply Air Humidity Ratio Input Method
  ,                                       !- Zone Humidification Design Supply Air Humidity Ratio {kgWater/kgDryAir}
  0.005,                                  !- Zone Humidification Design Supply Air Humidity Ratio Difference {kgWater/kgDryAir}
  ,                                       !- Zone Humidistat Dehumidification Set Point Schedule Name
  ,                                       !- Zone Humidistat Humidification Set Point Schedule Name
  ,                                       !- Design Zone Air Distribution Effectiveness in Cooling Mode
  ,                                       !- Design Zone Air Distribution Effectiveness in Heating Mode
  ,                                       !- Design Zone Secondary Recirculation Fraction {dimensionless}
  ,                                       !- Design Minimum Zone Ventilation Efficiency {dimensionless}
  Coincident;                             !- Sizing Option

OS:ZoneHVAC:EquipmentList,
  {d3875238-0879-44c3-929b-b24c817eea69}, !- Handle
  Zone HVAC Equipment List 2,             !- Name
  {aadbfc8e-a2d7-487b-8f2a-6372c6ea30ae}; !- Thermal Zone

OS:AdditionalProperties,
  {120231a7-4a72-49a5-baf7-93e4f331e329}, !- Handle
  {aadbfc8e-a2d7-487b-8f2a-6372c6ea30ae}, !- Object Name
  ObjectType,                             !- Feature Name 1
  String,                                 !- Feature Data Type 1
  attic - vented;                         !- Feature Value 1

OS:Space,
  {f25ff725-c157-4dbe-9840-1b11b8409c8e}, !- Handle
  attic - vented 1,                       !- Name
  ,                                       !- Space Type Name
  ,                                       !- Default Construction Set Name
  ,                                       !- Default Schedule Set Name
  ,                                       !- Direction of Relative North {deg}
  ,                                       !- X Origin {m}
  ,                                       !- Y Origin {m}
  ,                                       !- Z Origin {m}
  ,                                       !- Building Story Name
  {aadbfc8e-a2d7-487b-8f2a-6372c6ea30ae}, !- Thermal Zone Name
  ,                                       !- Part of Total Floor Area
  ,                                       !- Design Specification Outdoor Air Object Name
  ,                                       !- Building Unit Name
  356.389957095237;                       !- Volume {m3}

OS:Material,
  {ead8283e-c007-4267-94c6-81571d5f6d75}, !- Handle
  asphalt or fiberglass shingles,         !- Name
  Rough,                                  !- Roughness
  0.00635,                                !- Thickness {m}
  0.162714,                               !- Conductivity {W/m-K}
  1121.4,                                 !- Density {kg/m3}
  1465.45,                                !- Specific Heat {J/kg-K}
  0.9,                                    !- Thermal Absorptance
  0.85,                                   !- Solar Absorptance