
OS:Version,
  {38add62e-8332-41d6-bcab-c1ced00e22b9}, !- Handle
  3.10.0;                                 !- Version Identifier

OS:SimulationControl,
  {92613bf3-1498-4289-9bf9-a53024ec1e19}, !- Handle
  ,                                       !- Do Zone Sizing Calculation
  ,                                       !- Do System Sizing Calculation
  ,                                       !- Do Plant Sizing Calculation
  No;                                     !- Run Simulation for Sizing Periods

OS:Timestep,
  {ba36f339-dcbf-472d-8bab-ad3ff4957fc6}, !- Handle
  1;                                      !- Number of Timesteps per Hour

OS:ShadowCalculation,
  {b2ab4c8f-5ffd-4cc3-a345-a5ce07d840ee}, !- Handle
  PolygonClipping,                        !- Shading Calculation Method
  ,                                       !- Shading Calculation Update Frequency Method
  20,                                     !- Shading Calculation Update Frequency
  200,                                    !- Maximum Figures in Shadow Overlap Calculations
  ,                                       !- Polygon Clipping Algorithm
  512,                                    !- Pixel Counting Resolution
  ,                                       !- Sky Diffuse Modeling Algorithm
  No,                                     !- Output External Shading Calculation Results
  No,                                     !- Disable Self-Shading Within Shading Zone Groups
  No;                                     !- Disable Self-Shading From Shading Zone Groups to Other Zones

OS:SurfaceConvectionAlgorithm:Outside,
  {21d07072-b885-4620-abad-e07fa70bddf4}, !- Handle
  DOE-2;                                  !- Algorithm

OS:SurfaceConvectionAlgorithm:Inside,
  {8de901be-4990-43ab-9478-ca2de89eaf10}, !- Handle
  TARP;                                   !- Algorithm

OS:ZoneCapacitanceMultiplier:ResearchSpecial,
  {ada1ff39-0450-404e-84ed-a88e7d1392db}, !- Handle
  7,                                      !- Temperature Capacity Multiplier
  15,                                     !- Humidity Capacity Multiplier
  ;                                       !- Carbon Dioxide Capacity Multiplier

OS:ConvergenceLimits,
  {7f5e2aa0-9d88-4db0-baa0-9c6d0f0214a8}, !- Handle
  0;                                      !- Minimum System Timestep {minutes}

OS:RunPeriod,
  {b5b7a804-ff75-4881-b7d2-ffddaf4e8668}, !- Handle
  Run Period 1,                           !- Name
  1,                                      !- Begin Month
  1,                                      !- Begin Day of Month
  12,                                     !- End Month
  31,                                     !- End Day of Month
  ,                                       !- Use Weather File Holidays and Special Days
  ,                                       !- Use Weather File Daylight Saving Period
  ,                                       !- Apply Weekend Holiday Rule
  ,                                       !- Use Weather File Rain Indicators
  ,                                       !- Use Weather File Snow Indicators
  ;                                       !- Number of Times Runperiod to be Repeated

OS:PerformancePrecisionTradeoffs,
  {55b67e46-c139-4203-a92e-35f33ec1695b}, !- Handle
  ,                                       !- Use Coil Direct Solutions
  CarrollMRT;                             !- Zone Radiant Exchange Algorithm

OS:WeatherFile,
  {27b3f28c-20a4-4501-994e-29825a0bb2fc}, !- Handle
  Buffalo Niagara Intl Ap,                !- City
  NY,                                     !- State Province Region
  USA,                                    !- Country
  TMY3,                                   !- Data Source
  725280,                                 !- WMO Number
  42.93,                                  !- Latitude {deg}
  -78.73,                                 !- Longitude {deg}
  -5,                                     !- Time Zone {hr}
  215,                                    !- Elevation {m}
  /Users/nmoore/github/urbanopt-example-geojson-project/example_project/weather/USA_NY_Buffalo-Greater.Buffalo.Intl.AP.725280_TMY3.epw, !- Url
  6B50E0FF,                               !- Checksum
  ,                                       !- Start Date Actual Year
  Sunday;                                 !- Start Day of Week

OS:YearDescription,
  {71ac970b-d5f7-4ded-9001-b1095527b3a1}, !- Handle
  2007,                                   !- Calendar Year
  ,                                       !- Day of Week for Start Day
  ;                                       !- Is Leap Year

OS:Site,
  {8713889a-77d8-435e-b672-2938e28f892a}, !- Handle
  Buffalo Niagara Intl Ap_NY,             !- Name
  42.93,                                  !- Latitude {deg}
  -78.73,                                 !- Longitude {deg}
  -5,                                     !- Time Zone {hr}
  215,                                    !- Elevation {m}
  Suburbs,                                !- Terrain
  Yes;                                    !- Keep Site Location Information

OS:RunPeriodControl:DaylightSavingTime,
  {77a16c68-9e1e-48d9-9467-3733ac2d0496}, !- Handle
  Mar 12,                                 !- Start Date
  Nov 5;                                  !- End Date

OS:Site:GroundTemperature:Shallow,
  {23d52373-7153-4489-8f22-9ba09dcd4690}, !- Handle
  4.30207395723828,                       !- January Surface Ground Temperature {C}
  2.29327249652502,                       !- February Surface Ground Temperature {C}
  2.13240047156047,                       !- March Surface Ground Temperature {C}
  3.08567940719286,                       !- April Surface Ground Temperature {C}
  6.91256312497526,                       !- May Surface Ground Temperature {C}
  10.7216195949507,                       !- June Surface Ground Temperature {C}
  14.0238679822574,                       !- July Surface Ground Temperature {C}
  16.1157611184724,                       !- August Surface Ground Temperature {C}
  16.2934789303462,                       !- September Surface Ground Temperature {C}
  14.5920754632847,                       !- October Surface Ground Temperature {C}
  11.374036348653,                        !- November Surface Ground Temperature {C}
  7.68182621661674;                       !- December Surface Ground Temperature {C}

OS:ThermalZone,
  {ccde1b37-84dd-452e-8719-77df0d753965}, !- Handle
  conditioned space,                      !- Name
  1,                                      !- Multiplier
  ,                                       !- Ceiling Height {m}
  692.06373070848,                        !- Volume {m3}
  ,                                       !- Floor Area {m2}
  ,                                       !- Zone Inside Convection Algorithm
  ,                                       !- Zone Outside Convection Algorithm
  ,                                       !- Zone Conditioning Equipment List Name
  {0198be60-a26c-412b-9909-2e2ccef484ad}, !- Zone Air Inlet Port List
  {efe4065e-7802-49b5-b1d5-703d12a77602}, !- Zone Air Exhaust Port List
  {71cbfefe-6ea7-4966-8540-bd5c55d0091f}, !- Zone Air Node Name
  {4296ef40-9fb2-4f6f-9f2a-865fe198d27e}, !- Zone Return Air Port List
  ,                                       !- Primary Daylighting Control Name
  ,                                       !- Fraction of Zone Controlled by Primary Daylighting Control
  ,                                       !- Secondary Daylighting Control Name
  ,                                       !- Fraction of Zone Controlled by Secondary Daylighting Control
  ,                                       !- Illuminance Map Name
  ,                                       !- Group Rendering Name
  {c1a706c6-e594-4fc4-a9a3-a69aa5539ef3}, !- Thermostat Name
  No;                                     !- Use Ideal Air Loads

OS:Node,
  {68cb0d4e-9e22-4c10-b99d-6111f2deeb85}, !- Handle
  Node 1,                                 !- Name
  {71cbfefe-6ea7-4966-8540-bd5c55d0091f}, !- Inlet Port
  ;                                       !- Outlet Port

OS:Connection,
  {71cbfefe-6ea7-4966-8540-bd5c55d0091f}, !- Handle
  {ccde1b37-84dd-452e-8719-77df0d753965}, !- Source Object
  11,                                     !- Outlet Port
  {68cb0d4e-9e22-4c10-b99d-6111f2deeb85}, !- Target Object
  2;                                      !- Inlet Port

OS:PortList,
  {0198be60-a26c-412b-9909-2e2ccef484ad}, !- Handle
  {ccde1b37-84dd-452e-8719-77df0d753965}, !- HVAC Component
  {dae034b1-fc1e-4147-acf4-85364663cd11}; !- Port 1

OS:PortList,
  {efe4065e-7802-49b5-b1d5-703d12a77602}, !- Handle
  {ccde1b37-84dd-452e-8719-77df0d753965}; !- HVAC Component

OS:PortList,
  {4296ef40-9fb2-4f6f-9f2a-865fe198d27e}, !- Handle
  {ccde1b37-84dd-452e-8719-77df0d753965}, !- HVAC Component
  {997c5b55-8b98-447b-bd4d-21d416d9f593}; !- Port 1

OS:Sizing:Zone,
  {49dd5d7c-1f41-418a-8d87-81733d52f72c}, !- Handle
  {ccde1b37-84dd-452e-8719-77df0d753965}, !- Zone or ZoneList Name
  SupplyAirTemperature,                   !- Zone Cooling Design Supply Air Temperature Input Method
  14,                                     !- Zone Cooling Design Supply Air Temperature {C}
  11.11,                                  !- Zone Cooling Design Supply Air Temperature Difference {deltaC}
  SupplyAirTemperature,                   !- Zone Heating Design Supply Air Temperature Input Method
  40,                                     !- Zone Heating Design Supply Air Temperature {C}
  11.11,                                  !- Zone Heating Design Supply Air Temperature Difference {deltaC}
  0.0085,                                 !- Zone Cooling Design Supply Air Humidity Ratio {kg-H2O/kg-air}
  0.008,                                  !- Zone Heating Design Supply Air Humidity Ratio {kg-H2O/kg-air}
  ,                                       !- Zone Heating Sizing Factor
  ,                                       !- Zone Cooling Sizing Factor
  DesignDay,                              !- Cooling Design Air Flow Method
  ,                                       !- Cooling Design Air Flow Rate {m3/s}
  ,                                       !- Cooling Minimum Air Flow per Zone Floor Area {m3/s-m2}
  ,                                       !- Cooling Minimum Air Flow {m3/s}
  ,                                       !- Cooling Minimum Air Flow Fraction
  DesignDay,                              !- Heating Design Air Flow Method
  ,                                       !- Heating Design Air Flow Rate {m3/s}
  ,                                       !- Heating Maximum Air Flow per Zone Floor Area {m3/s-m2}
  ,                                       !- Heating Maximum Air Flow {m3/s}
  ,                                       !- Heating Maximum Air Flow Fraction
  No,                                     !- Account for Dedicated Outdoor Air System
  NeutralSupplyAir,                       !- Dedicated Outdoor Air System Control Strategy
  autosize,                               !- Dedicated Outdoor Air Low Setpoint Temperature for Design {C}
  autosize,                               !- Dedicated Outdoor Air High Setpoint Temperature for Design {C}
  Sensible Load Only No Latent Load,      !- Zone Load Sizing Method
  HumidityRatioDifference,                !- Zone Latent Cooling Design Supply Air Humidity Ratio Input Method
  ,                                       !- Zone Dehumidification Design Supply Air Humidity Ratio {kgWater/kgDryAir}
  0.005,                                  !- Zone Cooling Design Supply Air Humidity Ratio Difference {kgWater/kgDryAir}
  HumidityRatioDifference,                !- Zone Latent Heating Design Supply Air Humidity Ratio Input Method
  ,                                       !- Zone Humidification Design Supply Air Humidity Ratio {kgWater/kgDryAir}
  0.005,                                  !- Zone Humidification Design Supply Air Humidity Ratio Difference {kgWater/kgDryAir}
  ,                                       !- Zone Humidistat Dehumidification Set Point Schedule Name
  ,                                       !- Zone Humidistat Humidification Set Point Schedule Name
  ,                                       !- Design Zone Air Distribution Effectiveness in Cooling Mode
  ,                                       !- Design Zone Air Distribution Effectiveness in Heating Mode
  ,                                       !- Design Zone Secondary Recirculation Fraction {dimensionless}
  ,                                       !- Design Minimum Zone Ventilation Efficiency {dimensionless}
  Coincident;                             !- Sizing Option

OS:ZoneHVAC:EquipmentList,
  {7aaedb39-3aa8-445e-bb05-71ba3cefe63c}, !- Handle
  Zone HVAC Equipment List 1,             !- Name
  {ccde1b37-84dd-452e-8719-77df0d753965}, !- Thermal Zone
  ,                                       !- Load Distribution Scheme
  {0d6c3b97-8af9-452a-b7f0-8142413adccc}, !- Zone Equipment 1
  1,                                      !- Zone Equipment Cooling Sequence 1
  1,                                      !- Zone Equipment Heating or No-Load Sequence 1
  {e1280da6-1d95-4ad6-879f-f2b1960cac79}, !- Zone Equipment Sequential Cooling Fraction Schedule Name 1
  {ca4da9a0-edb1-4f78-b6ad-2d9cda971459}; !- Zone Equipment Sequential Heating Fraction Schedule Name 1

OS:AdditionalProperties,
  {81941b82-676a-468f-af30-d63e8c2db2da}, !- Handle
  {ccde1b37-84dd-452e-8719-77df0d753965}, !- Object Name
  ObjectType,                             !- Feature Name 1
  String,                                 !- Feature Data Type 1
  conditioned space;                      !- Feature Value 1

OS:Space,
  {62ed2446-09fe-4c7e-85a9-b33aafa13357}, !- Handle
  conditioned space 1,                    !- Name
  ,                                       !- Space Type Name
  ,                                       !- Default Construction Set Name
  ,                                       !- Default Schedule Set Name
  ,                                       !- Direction of Relative North {deg}
  ,                                       !- X Origin {m}
  ,                                       !- Y Origin {m}
  ,                                       !- Z Origin {m}
  ,                                       !- Building Story Name
  {ccde1b37-84dd-452e-8719-77df0d753965}, !- Thermal Zone Name
  ,                                       !- Part of Total Floor Area
  ,                                       !- Design Specification Outdoor Air Object Name
  ,                                       !- Building Unit Name
  692.06373070848;                        !- Volume {m3}

OS:Schedule:Ruleset,
  {247e1906-de97-4136-8e40-54ab658a4f56}, !- Handle
  heating setpoint,                       !- Name
  {5e974630-72c6-4047-97a2-15dbfa8db98d}, !- Schedule Type Limits Name
  {33c13786-416a-458c-b9da-edbd47861977}; !- Default Day Schedule Name

OS:Schedule:Day,
  {33c13786-416a-458c-b9da-edbd47861977}, !- Handle
  heating setpoint default day,           !- Name
  {5e974630-72c6-4047-97a2-15dbfa8db98d}, !- Schedule Type Limits Name
  ,                                       !- Interpolate to Timestep
  24,                                     !- Hour 1
  0,                                      !- Minute 1
  0;                                      !- Value Until Time 1

OS:Schedule:Rule,
  {1b596414-2850-4b98-aaad-be3e1edff9dc}, !- Handle
  heating setpoint allday rule,           !- Name
  {247e1906-de97-4136-8e40-54ab658a4f56}, !- Schedule Ruleset Name
  0,                                      !- Rule Order
  {4b528f5a-1098-4e8e-b88a-7079a2d0d7a4}, !- Day Schedule Name
  Yes,                                    !- Apply Sunday
  Yes,                                    !- Apply Monday
  Yes,                                    !- Apply Tuesday
  Yes,                                    !- Apply Wednesday
  Yes,                                    !- Apply Thursday
  Yes,                                    !- Apply Friday
  Yes,                                    !- Apply Saturday
  DateRange,                              !- Date Specification Type
  1,                                      !- Start Month
  1,                                      !- Start Day
  12,                                     !- End Month
  31;                                     !- End Day

OS:Schedule:Day,
  {4b528f5a-1098-4e8e-b88a-7079a2d0d7a4}, !- Handle
  heating setpoint day,                   !- Name
  {5e974630-72c6-4047-97a2-15dbfa8db98d}, !- Schedule Type Limits Name
  ,                                       !- Interpolate to Timestep
  24,                                     !- Hour 1
  0,                                      !- Minute 1
  20;                                     !- Value Until Time 1

OS:Schedule:Ruleset,
  {c885e34f-915e-4a96-8f8e-3fdd1d2ae448}, !- Handle
  cooling setpoint,                       !- Name
  {5e974630-72c6-4047-97a2-15dbfa8db98d}, !- Schedule Type Limits Name
  {697a18fd-7cdc-4b04-bd53-0b3dae699771}; !- Default Day Schedule Name

OS:Schedule:Day,
  {697a18fd-7cdc-4b04-bd53-0b3dae699771}, !- Handle
  cooling setpoint default day,           !- Name
  {5e974630-72c6-4047-97a2-15dbfa8db98d}, !- Schedule Type Limits Name
  ,                                       !- Interpolate to Timestep
  24,                                     !- Hour 1
  0,                                      !- Minute 1
  0;                                      !- Value Until Time 1

OS:Schedule:Rule,
  {f1a5be32-7302-4e6d-aa7d-2a4476abc7c6}, !- Handle
  cooling setpoint allday rule,           !- Name
  {c885e34f-915e-4a96-8f8e-3fdd1d2ae448}, !- Schedule Ruleset Name
  0,                                      !- Rule Order
  {31f00bdf-31ac-4833-a61f-4615dd117683}, !- Day Schedule Name
  Yes,                                    !- Apply Sunday
  Yes,                                    !- Apply Monday
  Yes,                                    !- Apply Tuesday
  Yes,                                    !- Apply Wednesday
  Yes,                                    !- Apply Thursday
  Yes,                                    !- Apply Friday
  Yes,                                    !- Apply Saturday
  DateRange,                              !- Date Specification Type
  1,                                      !- Start Month
  1,                                      !- Start Day
  12,                                     !- End Month
  31;                                     !- End Day

OS:Schedule:Day,
  {31f00bdf-31ac-4833-a61f-4615dd117683}, !- Handle
  cooling setpoint day,                   !- Name
  {5e974630-72c6-4047-97a2-15dbfa8db98d}, !- Schedule Type Limits Name
  ,                                       !- Interpolate to Timestep
  24,                                     !- Hour 1
  0,                                      !- Minute 1
  25.5555555555556;                       !- Value Until Time 1

OS:ThermostatSetpoint:DualSetpoint,
  {c1a706c6-e594-4fc4-a9a3-a69aa5539ef3}, !- Handle
  conditioned space temperature setpoint, !- Name
  {247e1906-de97-4136-8e40-54ab658a4f56}, !- Heating Setpoint Temperature Schedule Name
  {c885e34f-915e-4a96-8f8e-3fdd1d2ae448}, !- Cooling Setpoint Temperature Schedule Name
  0;                                      !- Temperature Difference Between Cutout And Setpoint {deltaC}

OS:ScheduleTypeLimits,
  {5e974630-72c6-4047-97a2-15dbfa8db98d}, !- Handle
  Temperature,                            !- Name
  ,                                       !- Lower Limit Value
  ,                                       !- Upper Limit Value
  Continuous,                             !- Numeric Type
  Temperature;                            !- Unit Type

OS:Surface,
  {3ada5740-fa51-4ae5-ad9a-dbf715ca678a}, !- Handle
  Roof1,                                  !- Name
  RoofCeiling,                            !- Surface Type
  {73d9dff5-487f-422f-a0a7-48234836bf0d}, !- Construction Name
  {0b4dc4cd-fe7e-40a3-ab13-f052a80c678a}, !- Space Name
  Outdoors,                               !- Outside Boundary Condition
  ,                                       !- Outside Boundary Condition Object
  SunExposed,                             !- Sun Exposure
  WindExposed,                            !- Wind Exposure
  ,                                       !- View Factor to Ground
  ,                                       !- Number of Vertices
  -26.9347048849634, 58.0557891618865, 2.4384, !- X,Y,Z Vertex 1 {m}
  -26.9347048849634, 46.7895631136661, 8.0715130241102, !- X,Y,Z Vertex 2 {m}
  -14.3386812381136, 46.7895631136661, 8.0715130241102, !- X,Y,Z Vertex 3 {m}
  -14.3386812381136, 58.0557891618865, 2.4384; !- X,Y,Z Vertex 4 {m}

OS:AdditionalProperties,
  {b70e7b46-cd28-4224-bff3-d67c1074828a}, !- Handle
  {3ada5740-fa51-4ae5-ad9a-dbf715ca678a}, !- Object Name
  Length,                                 !- Feature Name 1
  Double,                                 !- Feature Data Type 1
  41.325536899113608,                     !- Feature Value 1
  Width,                                  !- Feature Name 2
  Double,                                 !- Feature Data Type 2
  41.325536899113601,                     !- Feature Value 2
  Azimuth,                                !- Feature Name 3
  Integer,                                !- Feature Data Type 3
  0,                                      !- Feature Value 3
  Tilt,                                   !- Feature Name 4
  Double,                                 !- Feature Data Type 4
  0.5,                                    !- Feature Value 4
  SurfaceType,                            !- Feature Name 5
  String,                                 !- Feature Data Type 5
  Roof;                                   !- Feature Value 5

OS:ThermalZone,
  {da12a651-71c5-46a9-a59c-d40979a87001}, !- Handle
  attic - vented,                         !- Name
  1,                                      !- Multiplier
  ,                                       !- Ceiling Height {m}
  356.390921899745,                       !- Volume {m3}
  ,                                       !- Floor Area {m2}
  ,                                       !- Zone Inside Convection Algorithm
  ,                                       !- Zone Outside Convection Algorithm
  ,                                       !- Zone Conditioning Equipment List Name
  {cbc4d203-8e7b-4e33-b9b5-719e7f79a0ee}, !- Zone Air Inlet Port List
  {d4c306a4-a0c7-4231-b66d-2bb2775635b8}, !- Zone Air Exhaust Port List
  {c909d7b0-a42e-4d89-a015-dcb11a30d973}, !- Zone Air Node Name
  {db8dfb93-1a02-4b5d-8f6f-6d2b758a511e}, !- Zone Return Air Port List
  ,                                       !- Primary Daylighting Control Name
  ,                                       !- Fraction of Zone Controlled by Primary Daylighting Control
  ,                                       !- Secondary Daylighting Control Name
  ,                                       !- Fraction of Zone Controlled by Secondary Daylighting Control
  ,                                       !- Illuminance Map Name
  ,                                       !- Group Rendering Name
  ,                                       !- Thermostat Name
  No;                                     !- Use Ideal Air Loads

OS:Node,
  {808d2a7b-df96-44ff-aea4-0f4cd9160613}, !- Handle
  Node 2,                                 !- Name
  {c909d7b0-a42e-4d89-a015-dcb11a30d973}, !- Inlet Port
  ;                                       !- Outlet Port

OS:Connection,
  {c909d7b0-a42e-4d89-a015-dcb11a30d973}, !- Handle
  {da12a651-71c5-46a9-a59c-d40979a87001}, !- Source Object
  11,                                     !- Outlet Port
  {808d2a7b-df96-44ff-aea4-0f4cd9160613}, !- Target Object
  2;                                      !- Inlet Port

OS:PortList,
  {cbc4d203-8e7b-4e33-b9b5-719e7f79a0ee}, !- Handle
  {da12a651-71c5-46a9-a59c-d40979a87001}; !- HVAC Component

OS:PortList,
  {d4c306a4-a0c7-4231-b66d-2bb2775635b8}, !- Handle
  {da12a651-71c5-46a9-a59c-d40979a87001}; !- HVAC Component

OS:PortList,
  {db8dfb93-1a02-4b5d-8f6f-6d2b758a511e}, !- Handle
  {da12a651-71c5-46a9-a59c-d40979a87001}; !- HVAC Component

OS:Sizing:Zone,
  {a8ffcb2c-9c9c-4790-9837-7ce396c73aa5}, !- Handle
  {da12a651-71c5-46a9-a59c-d40979a87001}, !- Zone or ZoneList Name
  SupplyAirTemperature,                   !- Zone Cooling Design Supply Air Temperature Input Method
  14,                                     !- Zone Cooling Design Supply Air Temperature {C}
  11.11,                                  !- Zone Cooling Design Supply Air Temperature Difference {deltaC}
  SupplyAirTemperature,                   !- Zone Heating Design Supply Air Temperature Input Method
  40,                                     !- Zone Heating Design Supply Air Temperature {C}
  11.11,                                  !- Zone Heating Design Supply Air Temperature Difference {deltaC}
  0.0085,                                 !- Zone Cooling Design Supply Air Humidity Ratio {kg-H2O/kg-air}
  0.008,                                  !- Zone Heating Design Supply Air Humidity Ratio {kg-H2O/kg-air}
  ,                                       !- Zone Heating Sizing Factor
  ,                                       !- Zone Cooling Sizing Factor
  DesignDay,                              !- Cooling Design Air Flow Method
  ,                                       !- Cooling Design Air Flow Rate {m3/s}
  ,                                       !- Cooling Minimum Air Flow per Zone Floor Area {m3/s-m2}
  ,                                       !- Cooling Minimum Air Flow {m3/s}
  ,                                       !- Cooling Minimum Air Flow Fraction
  DesignDay,                              !- Heating Design Air Flow Method
  ,                                       !- Heating Design Air Flow Rate {m3/s}
  ,                                       !- Heating Maximum Air Flow per Zone Floor Area {m3/s-m2}
  ,                                       !- Heating Maximum Air Flow {m3/s}
  ,                                       !- Heating Maximum Air Flow Fraction
  No,                                     !- Account for Dedicated Outdoor Air System
  NeutralSupplyAir,                       !- Dedicated Outdoor Air System Control Strategy
  autosize,                               !- Dedicated Outdoor Air Low Setpoint Temperature for Design {C}
  autosize,                               !- Dedicated Outdoor Air High Setpoint Temperature for Design {C}
  Sensible Load Only No Latent Load,      !- Zone Load Sizing Method
  HumidityRatioDifference,                !- Zone Latent Cooling Design Supply Air Humidity Ratio Input Method
  ,                                       !- Zone Dehumidification Design Supply Air Humidity Ratio {kgWater/kgDryAir}
  0.005,                                  !- Zone Cooling Design Supply Air Humidity Ratio Difference {kgWater/kgDryAir}
  HumidityRatioDifference,                !- Zone Latent Heating Design Supply Air Humidity Ratio Input Method
  ,                                       !- Zone Humidification Design Supply Air Humidity Ratio {kgWater/kgDryAir}
  0.005,                                  !- Zone Humidification Design Supply Air Humidity Ratio Difference {kgWater/kgDryAir}
  ,                                       !- Zone Humidistat Dehumidification Set Point Schedule Name
  ,                                       !- Zone Humidistat Humidification Set Point Schedule Name
  ,                                       !- Design Zone Air Distribution Effectiveness in Cooling Mode
  ,                                       !- Design Zone Air Distribution Effectiveness in Heating Mode
  ,                                       !- Design Zone Secondary Recirculation Fraction {dimensionless}
  ,                                       !- Design Minimum Zone Ventilation Efficiency {dimensionless}
  Coincident;                             !- Sizing Option

OS:ZoneHVAC:EquipmentList,
  {13771867-d18f-4345-b91f-7f17875d1e5f}, !- Handle
  Zone HVAC Equipment List 2,             !- Name
  {da12a651-71c5-46a9-a59c-d40979a87001}; !- Thermal Zone

OS:AdditionalProperties,
  {b161ec22-85e8-401f-8b7c-f426fcd5ae3a}, !- Handle
  {da12a651-71c5-46a9-a59c-d40979a87001}, !- Object Name
  ObjectType,                             !- Feature Name 1
  String,                                 !- Feature Data Type 1
  attic - vented;                         !- Feature Value 1

OS:Space,
  {0b4dc4cd-fe7e-40a3-ab13-f052a80c678a}, !- Handle
  attic - vented 1,                       !- Name
  ,                                       !- Space Type Name
  ,                                       !- Default Construction Set Name
  ,                                       !- Default Schedule Set Name
  ,                                       !- Direction of Relative North {deg}
  ,                                       !- X Origin {m}
  ,                                       !- Y Origin {m}
  ,                                       !- Z Origin {m}
  ,                                       !- Building Story Name
  {da12a651-71c5-46a9-a59c-d40979a87001}, !- Thermal Zone Name
  ,                                       !- Part of Total Floor Area
  ,                                       !- Design Specification Outdoor Air Object Name
  ,                                       !- Building Unit Name
  356.390921899745;                       !- Volume {m3}

OS:Material,
  {528dc210-a2c8-4def-8d46-19a2d79a09ee}, !- Handle
  asphalt or fiberglass shingles,         !- Name
  Rough,                                  !- Roughness
  0.00635,                                !- Thickness {m}
  0.162714,                               !- Conductivity {W/m-K}
  1121.4,                                 !- Density {kg/m3}
  1465.45,                                !- Specific Heat {J/kg-K}
  0.9,                                    !- Thermal Absorptance
  0.85,                                   !- Solar Absorptance