
OS:Version,
  {408ff0ac-e626-4083-a0b1-1dc48a66d044}, !- Handle
  3.10.0;                                 !- Version Identifier

OS:SimulationControl,
  {47bccc5f-f3b9-4b89-ab8f-3e74716fea41}, !- Handle
  ,                                       !- Do Zone Sizing Calculation
  ,                                       !- Do System Sizing Calculation
  ,                                       !- Do Plant Sizing Calculation
  No;                                     !- Run Simulation for Sizing Periods

OS:Timestep,
  {31934ab2-2d5e-41c5-a830-b2d5701ebb55}, !- Handle
  1;                                      !- Number of Timesteps per Hour

OS:ShadowCalculation,
  {83dc355b-87e4-4925-b565-bb17e622afaa}, !- Handle
  PolygonClipping,                        !- Shading Calculation Method
  ,                                       !- Shading Calculation Update Frequency Method
  20,                                     !- Shading Calculation Update Frequency
  200,                                    !- Maximum Figures in Shadow Overlap Calculations
  ,                                       !- Polygon Clipping Algorithm
  512,                                    !- Pixel Counting Resolution
  ,                                       !- Sky Diffuse Modeling Algorithm
  No,                                     !- Output External Shading Calculation Results
  No,                                     !- Disable Self-Shading Within Shading Zone Groups
  No;                                     !- Disable Self-Shading From Shading Zone Groups to Other Zones

OS:SurfaceConvectionAlgorithm:Outside,
  {4cb16e1c-f7f1-48ac-b70c-6cd1317f3c4a}, !- Handle
  DOE-2;                                  !- Algorithm

OS:SurfaceConvectionAlgorithm:Inside,
  {b8689cc9-4572-4544-8c2a-1ef2677fe582}, !- Handle
  TARP;                                   !- Algorithm

OS:ZoneCapacitanceMultiplier:ResearchSpecial,
  {2f41109c-7b59-40c4-bcd6-caf6438bb2cc}, !- Handle
  7,                                      !- Temperature Capacity Multiplier
  15,                                     !- Humidity Capacity Multiplier
  ;                                       !- Carbon Dioxide Capacity Multiplier

OS:ConvergenceLimits,
  {b949dc28-fb0f-4cd1-bf22-84c54ab1f82b}, !- Handle
  0;                                      !- Minimum System Timestep {minutes}

OS:RunPeriod,
  {1a4fa318-a2f2-4d88-ae50-6a0429753a84}, !- Handle
  Run Period 1,                           !- Name
  1,                                      !- Begin Month
  1,                                      !- Begin Day of Month
  12,                                     !- End Month
  31,                                     !- End Day of Month
  ,                                       !- Use Weather File Holidays and Special Days
  ,                                       !- Use Weather File Daylight Saving Period
  ,                                       !- Apply Weekend Holiday Rule
  ,                                       !- Use Weather File Rain Indicators
  ,                                       !- Use Weather File Snow Indicators
  ;                                       !- Number of Times Runperiod to be Repeated

OS:PerformancePrecisionTradeoffs,
  {2fe65fe5-df29-4b02-9595-f77cd722fd86}, !- Handle
  ,                                       !- Use Coil Direct Solutions
  CarrollMRT;                             !- Zone Radiant Exchange Algorithm

OS:WeatherFile,
  {76fab5a3-9919-44b0-863f-de3a7b927968}, !- Handle
  Buffalo Niagara Intl Ap,                !- City
  NY,                                     !- State Province Region
  USA,                                    !- Country
  TMY3,                                   !- Data Source
  725280,                                 !- WMO Number
  42.93,                                  !- Latitude {deg}
  -78.73,                                 !- Longitude {deg}
  -5,                                     !- Time Zone {hr}
  215,                                    !- Elevation {m}
  /Users/nmoore/github/urbanopt-example-geojson-project/example_project/weather/USA_NY_Buffalo-Greater.Buffalo.Intl.AP.725280_TMY3.epw, !- Url
  6B50E0FF,                               !- Checksum
  ,                                       !- Start Date Actual Year
  Sunday;                                 !- Start Day of Week

OS:YearDescription,
  {bff48abc-44b3-4ca9-846c-d0f4afeb0922}, !- Handle
  2007,                                   !- Calendar Year
  ,                                       !- Day of Week for Start Day
  ;                                       !- Is Leap Year

OS:Site,
  {36f641d7-22ff-4ff6-84b5-6b1d35f4cba8}, !- Handle
  Buffalo Niagara Intl Ap_NY,             !- Name
  42.93,                                  !- Latitude {deg}
  -78.73,                                 !- Longitude {deg}
  -5,                                     !- Time Zone {hr}
  215,                                    !- Elevation {m}
  Suburbs,                                !- Terrain
  Yes;                                    !- Keep Site Location Information

OS:RunPeriodControl:DaylightSavingTime,
  {7a98d9e2-7f39-4730-8c0c-17e91ab5e6f8}, !- Handle
  Mar 12,                                 !- Start Date
  Nov 5;                                  !- End Date

OS:Site:GroundTemperature:Shallow,
  {33f157fe-426a-46ad-8753-e13532b2ea98}, !- Handle
  4.30207395723828,                       !- January Surface Ground Temperature {C}
  2.29327249652502,                       !- February Surface Ground Temperature {C}
  2.13240047156047,                       !- March Surface Ground Temperature {C}
  3.08567940719286,                       !- April Surface Ground Temperature {C}
  6.91256312497526,                       !- May Surface Ground Temperature {C}
  10.7216195949507,                       !- June Surface Ground Temperature {C}
  14.0238679822574,                       !- July Surface Ground Temperature {C}
  16.1157611184724,                       !- August Surface Ground Temperature {C}
  16.2934789303462,                       !- September Surface Ground Temperature {C}
  14.5920754632847,                       !- October Surface Ground Temperature {C}
  11.374036348653,                        !- November Surface Ground Temperature {C}
  7.68182621661674;                       !- December Surface Ground Temperature {C}

OS:ThermalZone,
  {b098a2b9-f992-4ab7-bcc0-f1ecc2753d29}, !- Handle
  conditioned space,                      !- Name
  1,                                      !- Multiplier
  ,                                       !- Ceiling Height {m}
  692.06373070848,                        !- Volume {m3}
  ,                                       !- Floor Area {m2}
  ,                                       !- Zone Inside Convection Algorithm
  ,                                       !- Zone Outside Convection Algorithm
  ,                                       !- Zone Conditioning Equipment List Name
  {47f85194-d300-4a5b-9b2d-2432ed21a2b2}, !- Zone Air Inlet Port List
  {9577c7f8-854a-4b1b-a344-c5a1df12f34d}, !- Zone Air Exhaust Port List
  {3ed8b8b8-a799-4c7c-8695-f11b138ac6c3}, !- Zone Air Node Name
  {d4f086cf-0349-42d5-9aea-e96a31a268a8}, !- Zone Return Air Port List
  ,                                       !- Primary Daylighting Control Name
  ,                                       !- Fraction of Zone Controlled by Primary Daylighting Control
  ,                                       !- Secondary Daylighting Control Name
  ,                                       !- Fraction of Zone Controlled by Secondary Daylighting Control
  ,                                       !- Illuminance Map Name
  ,                                       !- Group Rendering Name
  {376fcfcb-3a94-4ef4-b1bf-9ba098cbee32}, !- Thermostat Name
  No;                                     !- Use Ideal Air Loads

OS:Node,
  {67daf43e-62f1-4a38-9630-5d8ec45f316e}, !- Handle
  Node 1,                                 !- Name
  {3ed8b8b8-a799-4c7c-8695-f11b138ac6c3}, !- Inlet Port
  ;                                       !- Outlet Port

OS:Connection,
  {3ed8b8b8-a799-4c7c-8695-f11b138ac6c3}, !- Handle
  {b098a2b9-f992-4ab7-bcc0-f1ecc2753d29}, !- Source Object
  11,                                     !- Outlet Port
  {67daf43e-62f1-4a38-9630-5d8ec45f316e}, !- Target Object
  2;                                      !- Inlet Port

OS:PortList,
  {47f85194-d300-4a5b-9b2d-2432ed21a2b2}, !- Handle
  {b098a2b9-f992-4ab7-bcc0-f1ecc2753d29}, !- HVAC Component
  {4501da16-b160-460f-9d3c-be8f64483fa0}; !- Port 1

OS:PortList,
  {9577c7f8-854a-4b1b-a344-c5a1df12f34d}, !- Handle
  {b098a2b9-f992-4ab7-bcc0-f1ecc2753d29}; !- HVAC Component

OS:PortList,
  {d4f086cf-0349-42d5-9aea-e96a31a268a8}, !- Handle
  {b098a2b9-f992-4ab7-bcc0-f1ecc2753d29}, !- HVAC Component
  {203216eb-df02-441f-bd57-0d1319958d65}; !- Port 1

OS:Sizing:Zone,
  {1f526e83-526c-4603-892c-f07ca060c578}, !- Handle
  {b098a2b9-f992-4ab7-bcc0-f1ecc2753d29}, !- Zone or ZoneList Name
  SupplyAirTemperature,                   !- Zone Cooling Design Supply Air Temperature Input Method
  14,                                     !- Zone Cooling Design Supply Air Temperature {C}
  11.11,                                  !- Zone Cooling Design Supply Air Temperature Difference {deltaC}
  SupplyAirTemperature,                   !- Zone Heating Design Supply Air Temperature Input Method
  40,                                     !- Zone Heating Design Supply Air Temperature {C}
  11.11,                                  !- Zone Heating Design Supply Air Temperature Difference {deltaC}
  0.0085,                                 !- Zone Cooling Design Supply Air Humidity Ratio {kg-H2O/kg-air}
  0.008,                                  !- Zone Heating Design Supply Air Humidity Ratio {kg-H2O/kg-air}
  ,                                       !- Zone Heating Sizing Factor
  ,                                       !- Zone Cooling Sizing Factor
  DesignDay,                              !- Cooling Design Air Flow Method
  ,                                       !- Cooling Design Air Flow Rate {m3/s}
  ,                                       !- Cooling Minimum Air Flow per Zone Floor Area {m3/s-m2}
  ,                                       !- Cooling Minimum Air Flow {m3/s}
  ,                                       !- Cooling Minimum Air Flow Fraction
  DesignDay,                              !- Heating Design Air Flow Method
  ,                                       !- Heating Design Air Flow Rate {m3/s}
  ,                                       !- Heating Maximum Air Flow per Zone Floor Area {m3/s-m2}
  ,                                       !- Heating Maximum Air Flow {m3/s}
  ,                                       !- Heating Maximum Air Flow Fraction
  No,                                     !- Account for Dedicated Outdoor Air System
  NeutralSupplyAir,                       !- Dedicated Outdoor Air System Control Strategy
  autosize,                               !- Dedicated Outdoor Air Low Setpoint Temperature for Design {C}
  autosize,                               !- Dedicated Outdoor Air High Setpoint Temperature for Design {C}
  Sensible Load Only No Latent Load,      !- Zone Load Sizing Method
  HumidityRatioDifference,                !- Zone Latent Cooling Design Supply Air Humidity Ratio Input Method
  ,                                       !- Zone Dehumidification Design Supply Air Humidity Ratio {kgWater/kgDryAir}
  0.005,                                  !- Zone Cooling Design Supply Air Humidity Ratio Difference {kgWater/kgDryAir}
  HumidityRatioDifference,                !- Zone Latent Heating Design Supply Air Humidity Ratio Input Method
  ,                                       !- Zone Humidification Design Supply Air Humidity Ratio {kgWater/kgDryAir}
  0.005,                                  !- Zone Humidification Design Supply Air Humidity Ratio Difference {kgWater/kgDryAir}
  ,                                       !- Zone Humidistat Dehumidification Set Point Schedule Name
  ,                                       !- Zone Humidistat Humidification Set Point Schedule Name
  ,                                       !- Design Zone Air Distribution Effectiveness in Cooling Mode
  ,                                       !- Design Zone Air Distribution Effectiveness in Heating Mode
  ,                                       !- Design Zone Secondary Recirculation Fraction {dimensionless}
  ,                                       !- Design Minimum Zone Ventilation Efficiency {dimensionless}
  Coincident;                             !- Sizing Option

OS:ZoneHVAC:EquipmentList,
  {06999dda-8775-477e-b759-52b6dc8c8911}, !- Handle
  Zone HVAC Equipment List 1,             !- Name
  {b098a2b9-f992-4ab7-bcc0-f1ecc2753d29}, !- Thermal Zone
  ,                                       !- Load Distribution Scheme
  {274ce744-a8b2-473c-9f43-a966a93c5a4f}, !- Zone Equipment 1
  1,                                      !- Zone Equipment Cooling Sequence 1
  1,                                      !- Zone Equipment Heating or No-Load Sequence 1
  {2dccab60-88e2-4d89-bdfb-5cd7467c6742}, !- Zone Equipment Sequential Cooling Fraction Schedule Name 1
  {9fc055f8-cbff-466b-b495-226e44844663}; !- Zone Equipment Sequential Heating Fraction Schedule Name 1

OS:AdditionalProperties,
  {67d7b779-79bd-45c7-921f-d914bb77d702}, !- Handle
  {b098a2b9-f992-4ab7-bcc0-f1ecc2753d29}, !- Object Name
  ObjectType,                             !- Feature Name 1
  String,                                 !- Feature Data Type 1
  conditioned space;                      !- Feature Value 1

OS:Space,
  {7333506f-11f9-44a3-b207-703185950745}, !- Handle
  conditioned space 1,                    !- Name
  ,                                       !- Space Type Name
  ,                                       !- Default Construction Set Name
  ,                                       !- Default Schedule Set Name
  ,                                       !- Direction of Relative North {deg}
  ,                                       !- X Origin {m}
  ,                                       !- Y Origin {m}
  ,                                       !- Z Origin {m}
  ,                                       !- Building Story Name
  {b098a2b9-f992-4ab7-bcc0-f1ecc2753d29}, !- Thermal Zone Name
  ,                                       !- Part of Total Floor Area
  ,                                       !- Design Specification Outdoor Air Object Name
  ,                                       !- Building Unit Name
  692.06373070848;                        !- Volume {m3}

OS:Schedule:Ruleset,
  {80852220-3a47-45e4-b8b4-5432c603f44f}, !- Handle
  heating setpoint,                       !- Name
  {553e4d9b-1016-4173-9aa6-a41d2f1306a0}, !- Schedule Type Limits Name
  {78f6aef7-6f4b-4eb2-a5e5-4b5e023a7ba8}; !- Default Day Schedule Name

OS:Schedule:Day,
  {78f6aef7-6f4b-4eb2-a5e5-4b5e023a7ba8}, !- Handle
  heating setpoint default day,           !- Name
  {553e4d9b-1016-4173-9aa6-a41d2f1306a0}, !- Schedule Type Limits Name
  ,                                       !- Interpolate to Timestep
  24,                                     !- Hour 1
  0,                                      !- Minute 1
  0;                                      !- Value Until Time 1

OS:Schedule:Rule,
  {03498abd-c544-4efe-a33a-89db85069872}, !- Handle
  heating setpoint allday rule,           !- Name
  {80852220-3a47-45e4-b8b4-5432c603f44f}, !- Schedule Ruleset Name
  0,                                      !- Rule Order
  {e15e1e0e-8e6b-45d9-9fe5-0d59aafb247f}, !- Day Schedule Name
  Yes,                                    !- Apply Sunday
  Yes,                                    !- Apply Monday
  Yes,                                    !- Apply Tuesday
  Yes,                                    !- Apply Wednesday
  Yes,                                    !- Apply Thursday
  Yes,                                    !- Apply Friday
  Yes,                                    !- Apply Saturday
  DateRange,                              !- Date Specification Type
  1,                                      !- Start Month
  1,                                      !- Start Day
  12,                                     !- End Month
  31;                                     !- End Day

OS:Schedule:Day,
  {e15e1e0e-8e6b-45d9-9fe5-0d59aafb247f}, !- Handle
  heating setpoint day,                   !- Name
  {553e4d9b-1016-4173-9aa6-a41d2f1306a0}, !- Schedule Type Limits Name
  ,                                       !- Interpolate to Timestep
  24,                                     !- Hour 1
  0,                                      !- Minute 1
  20;                                     !- Value Until Time 1

OS:Schedule:Ruleset,
  {fb6c28f5-9e38-46e3-a819-c5baf016609c}, !- Handle
  cooling setpoint,                       !- Name
  {553e4d9b-1016-4173-9aa6-a41d2f1306a0}, !- Schedule Type Limits Name
  {558963f3-b44f-491a-99fa-76b064a839ae}; !- Default Day Schedule Name

OS:Schedule:Day,
  {558963f3-b44f-491a-99fa-76b064a839ae}, !- Handle
  cooling setpoint default day,           !- Name
  {553e4d9b-1016-4173-9aa6-a41d2f1306a0}, !- Schedule Type Limits Name
  ,                                       !- Interpolate to Timestep
  24,                                     !- Hour 1
  0,                                      !- Minute 1
  0;                                      !- Value Until Time 1

OS:Schedule:Rule,
  {6d10d58c-583c-4e26-8dd6-d55b7f0b1af9}, !- Handle
  cooling setpoint allday rule,           !- Name
  {fb6c28f5-9e38-46e3-a819-c5baf016609c}, !- Schedule Ruleset Name
  0,                                      !- Rule Order
  {e22cd0c3-5ba6-4e93-8efb-657f437f34ee}, !- Day Schedule Name
  Yes,                                    !- Apply Sunday
  Yes,                                    !- Apply Monday
  Yes,                                    !- Apply Tuesday
  Yes,                                    !- Apply Wednesday
  Yes,                                    !- Apply Thursday
  Yes,                                    !- Apply Friday
  Yes,                                    !- Apply Saturday
  DateRange,                              !- Date Specification Type
  1,                                      !- Start Month
  1,                                      !- Start Day
  12,                                     !- End Month
  31;                                     !- End Day

OS:Schedule:Day,
  {e22cd0c3-5ba6-4e93-8efb-657f437f34ee}, !- Handle
  cooling setpoint day,                   !- Name
  {553e4d9b-1016-4173-9aa6-a41d2f1306a0}, !- Schedule Type Limits Name
  ,                                       !- Interpolate to Timestep
  24,                                     !- Hour 1
  0,                                      !- Minute 1
  25.5555555555556;                       !- Value Until Time 1

OS:ThermostatSetpoint:DualSetpoint,
  {376fcfcb-3a94-4ef4-b1bf-9ba098cbee32}, !- Handle
  conditioned space temperature setpoint, !- Name
  {80852220-3a47-45e4-b8b4-5432c603f44f}, !- Heating Setpoint Temperature Schedule Name
  {fb6c28f5-9e38-46e3-a819-c5baf016609c}, !- Cooling Setpoint Temperature Schedule Name
  0;                                      !- Temperature Difference Between Cutout And Setpoint {deltaC}

OS:ScheduleTypeLimits,
  {553e4d9b-1016-4173-9aa6-a41d2f1306a0}, !- Handle
  Temperature,                            !- Name
  ,                                       !- Lower Limit Value
  ,                                       !- Upper Limit Value
  Continuous,                             !- Numeric Type
  Temperature;                            !- Unit Type

OS:Surface,
  {db8cb6d7-5675-4663-bbc1-feced4e6ef6b}, !- Handle
  Roof1,                                  !- Name
  RoofCeiling,                            !- Surface Type
  {3ca21c56-3a41-42e7-b56e-3736a76ae7eb}, !- Construction Name
  {7333506f-11f9-44a3-b207-703185950745}, !- Space Name
  Outdoors,                               !- Outside Boundary Condition
  ,                                       !- Outside Boundary Condition Object
  SunExposed,                             !- Sun Exposure
  WindExposed,                            !- Wind Exposure
  ,                                       !- View Factor to Ground
  ,                                       !- Number of Vertices
  -8.42346109387347, 8.42346109387347, 2.4384, !- X,Y,Z Vertex 1 {m}
  -8.42346109387347, -8.42346109387347, 2.4384, !- X,Y,Z Vertex 2 {m}
  8.42346109387347, -8.42346109387347, 2.4384, !- X,Y,Z Vertex 3 {m}
  8.42346109387347, 8.42346109387347, 2.4384; !- X,Y,Z Vertex 4 {m}

OS:AdditionalProperties,
  {bfb64b5a-4829-475c-8d49-e2ee7d2e2962}, !- Handle
  {db8cb6d7-5675-4663-bbc1-feced4e6ef6b}, !- Object Name
  Length,                                 !- Feature Name 1
  Double,                                 !- Feature Data Type 1
  55.27205442174192,                      !- Feature Value 1
  Width,                                  !- Feature Name 2
  Double,                                 !- Feature Data Type 2
  55.272054421741913,                     !- Feature Value 2
  Azimuth,                                !- Feature Name 3
  Integer,                                !- Feature Data Type 3
  0,                                      !- Feature Value 3
  Tilt,                                   !- Feature Name 4
  Double,                                 !- Feature Data Type 4
  0,                                      !- Feature Value 4
  SurfaceType,                            !- Feature Name 5
  String,                                 !- Feature Data Type 5
  Roof;                                   !- Feature Value 5

OS:Material,
  {4550a50e-220b-4c27-b7f8-6953a6b3e8a2}, !- Handle
  asphalt or fiberglass shingles,         !- Name
  Rough,                                  !- Roughness
  0.00635,                                !- Thickness {m}
  0.162714,                               !- Conductivity {W/m-K}
  1121.4,                                 !- Density {kg/m3}
  1465.45,                                !- Specific Heat {J/kg-K}
  0.9,                                    !- Thermal Absorptance
  0.85,                                   !- Solar Absorptance
  0.85;                                   !- Visible Absorptance

OS:Material,
  {aa15f497-7cf6-49b0-b5e9-6cd72143110a}, !- Handle
  roof stud and cavity,                   !- Name
  Rough,                                  !- Roughness
  0.0889,                                 !- Thickness {m}
  0.491900632004487,                      !- Conductivity {W/m-K}
  50.32683,                               !- Density {kg/m3}
  1063.80987585548,                       !- Specific Heat {J/kg-K}
  0.9,                                    !- Thermal Absorptance
  0.7,                                    !- Solar Absorptance
  0.7;                                    !- Visible Absorptance

OS:Material,
  {375060b8-fa36-4a25-8590-a8cf1a8e510a}, !- Handle
  gypsum board,                           !- Name
  Rough,                                  !- Roughness
  0.00254,                                !- Thickness {m}
  0.1602906,                              !- Conductivity {W/m-K}
  801,                                    !- Density {kg/m3}
  837.4,                                  !- Specific Heat {J/kg-K}
  0.9,                                    !- Thermal Absorptance
  0.6,                                    !- Solar Absorptance
  0.6;                                    !- Visible Absorptance

OS:Construction,
  {3ca21c56-3a41-42e7-b56e-3736a76ae7eb}, !- Handle
  Roof1 construction,                     !- Name
  ,                                       !- Surface Rendering Name
  {4550a50e-220b-4c27-b7f8-6953a6b3e8a2}, !- Layer 1
  {aa15f497-7cf6-49b0-b5e9-6cd72143110a}, !- Layer 2
  {375060b8-fa36-4a25-8590-a8cf1a8e510a}; !- Layer 3

OS:Surface,
  {a13cf7d0-910b-427f-bb2b-7cf31438469e}, !- Handle
  Wall1,                                  !- Name
  Wall,                                   !- Surface Type
  {e4943d13-f17f-4306-9f8e-593c2dbb4908}, !- Construction Name
  {7333506f-11f9-44a3-b207-703185950745}, !- Space Name
  Outdoors,                               !- Outside Boundary Condition
  ,                                       !- Outside Boundary Condition Object
  SunExposed,                             !- Sun Exposure
  WindExposed,                            !- Wind Exposure
  ,                                       !- View Factor to Ground
  ,                                       !- Number of Vertices
  -50.3642317384615, 51.2932621384616, 0, !- X,Y,Z Vertex 1 {m}
  -50.3642317384615, 51.2932621384616, 2.4384, !- X,Y,Z Vertex 2 {m}
  -30.8303617384615, 51.2932621384616, 2.4384, !- X,Y,Z Vertex 3 {m}
  -30.8303617384615, 51.2932621384616, 0; !- X,Y,Z Vertex 4 {m}

OS:AdditionalProperties,
  {c45cfce3-976e-4495-b10a-3a257ad9cc7f}, !- Handle
  {a13cf7d0-910b-427f-bb2b-7cf31438469e}, !- Object Name
  Length,                                 !- Feature Name 1
  Double,                                 !- Feature Data Type 1
  64.087499999999991,                     !- Feature Value 1
  Azimuth,                                !- Feature Name 2
  Integer,                                !- Feature Data Type 2
  0,                                      !- Feature Value 2
  Tilt,                                   !- Feature Name 3
  Double,                                 !- Feature Data Type 3
  90,                                     !- Feature Value 3
  SurfaceType,                            !- Feature Name 4
  String,                                 !- Feature Data Type 4
  Wall;                                   !- Feature Value 4

OS:Material,
  {26a79669-ff3d-4857-8e9a-7d766d321bee}, !- Handle
  wood siding,                            !- Name
  Rough,                                  !- Roughness
  0.0254,                                 !- Thickness {m}
  0.1024175,                              !- Conductivity {W/m-K}
  544.68,                                 !- Density {kg/m3}
  1172.36,                                !- Specific Heat {J/kg-K}
  0.9,                                    !- Thermal Absorptance
  0.7,                                    !- Solar Absorptance
  0.7;                                    !- Visible Absorptance

OS:Material,
  {3faf3a2e-ae64-4f98-8a3d-0f65fe52593b}, !- Handle
  osb sheathing 0.5 in.,                  !- Name
  Rough,                                  !- Roughness
  0.0127,                                 !- Thickness {m}
  0.1154577,                              !- Conductivity {W/m-K}
  512.64,                                 !- Density {kg/m3}
  1214.23,                                !- Specific Heat {J/kg-K}
  0.9,                                    !- Thermal Absorptance
  0.7,                                    !- Solar Absorptance
  0.7;                                    !- Visible Absorptance

OS:Material,
  {d61e71f2-48c6-45b3-af3c-d825ae695b50}, !- Handle
  wall stud and cavity,                   !- Name
  Rough,                                  !- Roughness
  0.1397,                                 !- Thickness {m}
  0.0929021674204099,                     !- Conductivity {W/m-K}
  139.0536,                               !- Density {kg/m3}
  1170.23755760369,                       !- Specific Heat {J/kg-K}
  0.9,                                    !- Thermal Absorptance
  0.7,                                    !- Solar Absorptance
  0.7;                                    !- Visible Absorptance

OS:Material,
  {b96410e5-498b-454a-89d5-aceaacb0c919}, !- Handle
  gypsum board 1,                         !- Name
  Rough,                                  !- Roughness
  0.0127,                                 !- Thickness {m}
  0.1602906,                              !- Conductivity {W/m-K}
  801,                                    !- Density {kg/m3}
  837.4,                                  !- Specific Heat {J/kg-K}
  0.9,                                    !- Thermal Absorptance
  0.6,                                    !- Solar Absorptance
  0.6;                                    !- Visible Absorptance

OS:Construction,
  {e4943d13-f17f-4306-9f8e-593c2dbb4908}, !- Handle
  Wall1 construction,                     !- Name
  ,                                       !- Surface Rendering Name
  {26a79669-ff3d-4857-8e9a-7d766d321bee}, !- Layer 1
  {3faf3a2e-ae64-4f98-8a3d-0f65fe52593b}, !- Layer 2
  {d61e71f2-48c6-45b3-af3c-d825ae695b50}, !- Layer 3
  {b96410e5-498b-454a-89d5-aceaacb0c919}; !- Layer 4

OS:Surface,
  {c4009726-6cb6-488d-a0b6-a29471429ba2}, !- Handle
  Wall2,                                  !- Name
  Wall,                                   !- Surface Type
  {647f6f49-9d1c-4910-9fa2-0a19c0ffae70}, !- Construction Name
  {7333506f-11f9-44a3-b207-703185950745}, !- Space Name
  Outdoors,                               !- Outside Boundary Condition
  ,                                       !- Outside Boundary Condition Object
  SunExposed,                             !- Sun Exposure
  WindExposed,                            !- Wind Exposure
  ,                                       !- View Factor to Ground
  ,                                       !- Number of Vertices
  51.2932621384616, -36.1953302, 0,       !- X,Y,Z Vertex 1 {m}
  51.2932621384616, -36.1953302, 2.4384,  !- X,Y,Z Vertex 2 {m}
  51.2932621384616, -45.9641702, 2.4384,  !- X,Y,Z Vertex 3 {m}
  51.2932621384616, -45.9641702, 0;       !- X,Y,Z Vertex 4 {m}

OS:AdditionalProperties,
  {75ce85f8-7082-4250-866c-434f0b77981c}, !- Handle
  {c4009726-6cb6-488d-a0b6-a29471429ba2}, !- Object Name
  Length,                                 !- Feature Name 1
  Double,                                 !- Feature Data Type 1
  32.049999999999997,                     !- Feature Value 1
  Azimuth,                                !- Feature Name 2