
OS:Version,
  {6d39a8e3-eeff-4a73-9140-40ccfaf30fe3}, !- Handle
  3.9.0;                                  !- Version Identifier

OS:SimulationControl,
  {186da566-b3f7-4369-93de-8f075b5b4497}, !- Handle
  ,                                       !- Do Zone Sizing Calculation
  ,                                       !- Do System Sizing Calculation
  ,                                       !- Do Plant Sizing Calculation
  No;                                     !- Run Simulation for Sizing Periods

OS:Timestep,
  {a725764f-879e-40ca-b250-6a14c4e2458c}, !- Handle
  1;                                      !- Number of Timesteps per Hour

OS:ShadowCalculation,
  {39a653ac-58e0-4ade-b651-4bbdb2449efd}, !- Handle
  PolygonClipping,                        !- Shading Calculation Method
  ,                                       !- Shading Calculation Update Frequency Method
  20,                                     !- Shading Calculation Update Frequency
  200,                                    !- Maximum Figures in Shadow Overlap Calculations
  ,                                       !- Polygon Clipping Algorithm
  512,                                    !- Pixel Counting Resolution
  ,                                       !- Sky Diffuse Modeling Algorithm
  No,                                     !- Output External Shading Calculation Results
  No,                                     !- Disable Self-Shading Within Shading Zone Groups
  No;                                     !- Disable Self-Shading From Shading Zone Groups to Other Zones

OS:SurfaceConvectionAlgorithm:Outside,
  {f1cc0483-e73e-4906-b256-0ccc3f2f93bb}, !- Handle
  DOE-2;                                  !- Algorithm

OS:SurfaceConvectionAlgorithm:Inside,
  {fe94ad44-3c3a-48d1-8777-072f2b4e6e2d}, !- Handle
  TARP;                                   !- Algorithm

OS:ZoneCapacitanceMultiplier:ResearchSpecial,
  {cd640466-9036-4dca-90af-1cf3b0c5ae86}, !- Handle
  7,                                      !- Temperature Capacity Multiplier
  15,                                     !- Humidity Capacity Multiplier
  ;                                       !- Carbon Dioxide Capacity Multiplier

OS:ConvergenceLimits,
  {fce030f0-94f6-47c2-9d2a-0d63efb98d76}, !- Handle
  0;                                      !- Minimum System Timestep {minutes}

OS:RunPeriod,
  {48428d56-808d-4624-8c36-7f0a70637657}, !- Handle
  Run Period 1,                           !- Name
  1,                                      !- Begin Month
  1,                                      !- Begin Day of Month
  12,                                     !- End Month
  31,                                     !- End Day of Month
  ,                                       !- Use Weather File Holidays and Special Days
  ,                                       !- Use Weather File Daylight Saving Period
  ,                                       !- Apply Weekend Holiday Rule
  ,                                       !- Use Weather File Rain Indicators
  ,                                       !- Use Weather File Snow Indicators
  ;                                       !- Number of Times Runperiod to be Repeated

OS:PerformancePrecisionTradeoffs,
  {73e5e879-29df-4321-86e1-bc9cd133143b}, !- Handle
  ,                                       !- Use Coil Direct Solutions
  CarrollMRT;                             !- Zone Radiant Exchange Algorithm

OS:WeatherFile,
  {cb5a93d7-1315-4030-a3b3-1ad296132313}, !- Handle
  Buffalo Niagara Intl Ap,                !- City
  NY,                                     !- State Province Region
  USA,                                    !- Country
  TMY3,                                   !- Data Source
  725280,                                 !- WMO Number
  42.93,                                  !- Latitude {deg}
  -78.73,                                 !- Longitude {deg}
  -5,                                     !- Time Zone {hr}
  215,                                    !- Elevation {m}
  /Users/nmoore/github/urbanopt-example-geojson-project/example_project/weather/USA_NY_Buffalo-Greater.Buffalo.Intl.AP.725280_TMY3.epw, !- Url
  6B50E0FF,                               !- Checksum
  ,                                       !- Start Date Actual Year
  Sunday;                                 !- Start Day of Week

OS:YearDescription,
  {94f90164-8f7a-4756-8d19-2246fc0e8cca}, !- Handle
  2007,                                   !- Calendar Year
  ,                                       !- Day of Week for Start Day
  ;                                       !- Is Leap Year

OS:Site,
  {817718d8-9f8d-4a8f-abdb-1b6d6d56e9e5}, !- Handle
  Buffalo Niagara Intl Ap_NY,             !- Name
  42.93,                                  !- Latitude {deg}
  -78.73,                                 !- Longitude {deg}
  -5,                                     !- Time Zone {hr}
  215,                                    !- Elevation {m}
  Suburbs,                                !- Terrain
  Yes;                                    !- Keep Site Location Information

OS:RunPeriodControl:DaylightSavingTime,
  {aa2a239f-1c7d-4e4a-b3e5-a07ca00abc8f}, !- Handle
  Mar 12,                                 !- Start Date
  Nov 5;                                  !- End Date

OS:Site:GroundTemperature:Shallow,
  {9f233ce5-1ecd-4eb3-9615-e23328aa3ce7}, !- Handle
  4.30207395723828,                       !- January Surface Ground Temperature {C}
  2.29327249652502,                       !- February Surface Ground Temperature {C}
  2.13240047156047,                       !- March Surface Ground Temperature {C}
  3.08567940719286,                       !- April Surface Ground Temperature {C}
  6.91256312497526,                       !- May Surface Ground Temperature {C}
  10.7216195949507,                       !- June Surface Ground Temperature {C}
  14.0238679822574,                       !- July Surface Ground Temperature {C}
  16.1157611184724,                       !- August Surface Ground Temperature {C}
  16.2934789303462,                       !- September Surface Ground Temperature {C}
  14.5920754632847,                       !- October Surface Ground Temperature {C}
  11.374036348653,                        !- November Surface Ground Temperature {C}
  7.68182621661674;                       !- December Surface Ground Temperature {C}

OS:ThermalZone,
  {8c851732-15ef-44f5-8bb6-580fcfe8592a}, !- Handle
  conditioned space,                      !- Name
  1,                                      !- Multiplier
  ,                                       !- Ceiling Height {m}
  692.06373070848,                        !- Volume {m3}
  ,                                       !- Floor Area {m2}
  ,                                       !- Zone Inside Convection Algorithm
  ,                                       !- Zone Outside Convection Algorithm
  ,                                       !- Zone Conditioning Equipment List Name
  {434e7230-cc16-454e-81f6-24082d7bba04}, !- Zone Air Inlet Port List
  {3f203be7-9980-46a6-9b4b-f6257285db30}, !- Zone Air Exhaust Port List
  {00983332-0925-4c23-8098-785fc838a0b4}, !- Zone Air Node Name
  {607737dd-7201-46a6-9ecd-6dc3753bbdd0}, !- Zone Return Air Port List
  ,                                       !- Primary Daylighting Control Name
  ,                                       !- Fraction of Zone Controlled by Primary Daylighting Control
  ,                                       !- Secondary Daylighting Control Name
  ,                                       !- Fraction of Zone Controlled by Secondary Daylighting Control
  ,                                       !- Illuminance Map Name
  ,                                       !- Group Rendering Name
  {d1798e1a-33c7-4afc-8375-5e193216329d}, !- Thermostat Name
  No;                                     !- Use Ideal Air Loads

OS:Node,
  {27d00a28-c67f-499e-9440-f7c588ee4c79}, !- Handle
  Node 1,                                 !- Name
  {00983332-0925-4c23-8098-785fc838a0b4}, !- Inlet Port
  ;                                       !- Outlet Port

OS:Connection,
  {00983332-0925-4c23-8098-785fc838a0b4}, !- Handle
  {8c851732-15ef-44f5-8bb6-580fcfe8592a}, !- Source Object
  11,                                     !- Outlet Port
  {27d00a28-c67f-499e-9440-f7c588ee4c79}, !- Target Object
  2;                                      !- Inlet Port

OS:PortList,
  {434e7230-cc16-454e-81f6-24082d7bba04}, !- Handle
  {8c851732-15ef-44f5-8bb6-580fcfe8592a}, !- HVAC Component
  {f83948a8-f1f7-47e8-bdfd-1cfecfaa3c50}; !- Port 1

OS:PortList,
  {3f203be7-9980-46a6-9b4b-f6257285db30}, !- Handle
  {8c851732-15ef-44f5-8bb6-580fcfe8592a}; !- HVAC Component

OS:PortList,
  {607737dd-7201-46a6-9ecd-6dc3753bbdd0}, !- Handle
  {8c851732-15ef-44f5-8bb6-580fcfe8592a}, !- HVAC Component
  {bc2ebb84-6355-472b-98b0-c08f936ac8ac}; !- Port 1

OS:Sizing:Zone,
  {b6449e8d-0744-4309-9073-84951f3ef945}, !- Handle
  {8c851732-15ef-44f5-8bb6-580fcfe8592a}, !- Zone or ZoneList Name
  SupplyAirTemperature,                   !- Zone Cooling Design Supply Air Temperature Input Method
  14,                                     !- Zone Cooling Design Supply Air Temperature {C}
  11.11,                                  !- Zone Cooling Design Supply Air Temperature Difference {deltaC}
  SupplyAirTemperature,                   !- Zone Heating Design Supply Air Temperature Input Method
  40,                                     !- Zone Heating Design Supply Air Temperature {C}
  11.11,                                  !- Zone Heating Design Supply Air Temperature Difference {deltaC}
  0.0085,                                 !- Zone Cooling Design Supply Air Humidity Ratio {kg-H2O/kg-air}
  0.008,                                  !- Zone Heating Design Supply Air Humidity Ratio {kg-H2O/kg-air}
  ,                                       !- Zone Heating Sizing Factor
  ,                                       !- Zone Cooling Sizing Factor
  DesignDay,                              !- Cooling Design Air Flow Method
  ,                                       !- Cooling Design Air Flow Rate {m3/s}
  ,                                       !- Cooling Minimum Air Flow per Zone Floor Area {m3/s-m2}
  ,                                       !- Cooling Minimum Air Flow {m3/s}
  ,                                       !- Cooling Minimum Air Flow Fraction
  DesignDay,                              !- Heating Design Air Flow Method
  ,                                       !- Heating Design Air Flow Rate {m3/s}
  ,                                       !- Heating Maximum Air Flow per Zone Floor Area {m3/s-m2}
  ,                                       !- Heating Maximum Air Flow {m3/s}
  ,                                       !- Heating Maximum Air Flow Fraction
  No,                                     !- Account for Dedicated Outdoor Air System
  NeutralSupplyAir,                       !- Dedicated Outdoor Air System Control Strategy
  autosize,                               !- Dedicated Outdoor Air Low Setpoint Temperature for Design {C}
  autosize,                               !- Dedicated Outdoor Air High Setpoint Temperature for Design {C}
  Sensible Load Only No Latent Load,      !- Zone Load Sizing Method
  HumidityRatioDifference,                !- Zone Latent Cooling Design Supply Air Humidity Ratio Input Method
  ,                                       !- Zone Dehumidification Design Supply Air Humidity Ratio {kgWater/kgDryAir}
  0.005,                                  !- Zone Cooling Design Supply Air Humidity Ratio Difference {kgWater/kgDryAir}
  HumidityRatioDifference,                !- Zone Latent Heating Design Supply Air Humidity Ratio Input Method
  ,                                       !- Zone Humidification Design Supply Air Humidity Ratio {kgWater/kgDryAir}
  0.005,                                  !- Zone Humidification Design Supply Air Humidity Ratio Difference {kgWater/kgDryAir}
  ,                                       !- Zone Humidistat Dehumidification Set Point Schedule Name
  ,                                       !- Zone Humidistat Humidification Set Point Schedule Name
  ,                                       !- Design Zone Air Distribution Effectiveness in Cooling Mode
  ,                                       !- Design Zone Air Distribution Effectiveness in Heating Mode
  ,                                       !- Design Zone Secondary Recirculation Fraction {dimensionless}
  ,                                       !- Design Minimum Zone Ventilation Efficiency {dimensionless}
  Coincident;                             !- Sizing Option

OS:ZoneHVAC:EquipmentList,
  {33ec543c-98e6-4dc0-8814-89517fa57464}, !- Handle
  Zone HVAC Equipment List 1,             !- Name
  {8c851732-15ef-44f5-8bb6-580fcfe8592a}, !- Thermal Zone
  ,                                       !- Load Distribution Scheme
  {64a684d3-0ee7-4bc8-91d1-41723917b370}, !- Zone Equipment 1
  1,                                      !- Zone Equipment Cooling Sequence 1
  1,                                      !- Zone Equipment Heating or No-Load Sequence 1
  {1cb66085-cf5a-412c-89f8-4ad79979aaa7}, !- Zone Equipment Sequential Cooling Fraction Schedule Name 1
  {8c678323-8c29-4ca5-96d2-8d203b76d150}; !- Zone Equipment Sequential Heating Fraction Schedule Name 1

OS:AdditionalProperties,
  {d8148b31-0e4d-4b5e-a4f6-49acf04b0a23}, !- Handle
  {8c851732-15ef-44f5-8bb6-580fcfe8592a}, !- Object Name
  ObjectType,                             !- Feature Name 1
  String,                                 !- Feature Data Type 1
  conditioned space;                      !- Feature Value 1

OS:Space,
  {26a34698-cc78-4797-8db9-7ef16791a44f}, !- Handle
  conditioned space 1,                    !- Name
  ,                                       !- Space Type Name
  ,                                       !- Default Construction Set Name
  ,                                       !- Default Schedule Set Name
  ,                                       !- Direction of Relative North {deg}
  ,                                       !- X Origin {m}
  ,                                       !- Y Origin {m}
  ,                                       !- Z Origin {m}
  ,                                       !- Building Story Name
  {8c851732-15ef-44f5-8bb6-580fcfe8592a}, !- Thermal Zone Name
  ,                                       !- Part of Total Floor Area
  ,                                       !- Design Specification Outdoor Air Object Name
  ,                                       !- Building Unit Name
  692.06373070848;                        !- Volume {m3}

OS:Schedule:Ruleset,
  {e2ab7584-676a-44ae-acc5-2302c4e796ff}, !- Handle
  heating setpoint,                       !- Name
  {526d4246-afe9-41fa-a65a-6fb3474f085d}, !- Schedule Type Limits Name
  {04731f87-9b34-43f1-a9a9-0b476c4f44fb}; !- Default Day Schedule Name

OS:Schedule:Day,
  {04731f87-9b34-43f1-a9a9-0b476c4f44fb}, !- Handle
  heating setpoint default day,           !- Name
  {526d4246-afe9-41fa-a65a-6fb3474f085d}, !- Schedule Type Limits Name
  ,                                       !- Interpolate to Timestep
  24,                                     !- Hour 1
  0,                                      !- Minute 1
  0;                                      !- Value Until Time 1

OS:Schedule:Rule,
  {557fa6c6-aa8b-44c7-89dc-dffd4eda4738}, !- Handle
  heating setpoint allday rule,           !- Name
  {e2ab7584-676a-44ae-acc5-2302c4e796ff}, !- Schedule Ruleset Name
  0,                                      !- Rule Order
  {7ef3a02d-7788-4e39-8e23-05be809d83e4}, !- Day Schedule Name
  Yes,                                    !- Apply Sunday
  Yes,                                    !- Apply Monday
  Yes,                                    !- Apply Tuesday
  Yes,                                    !- Apply Wednesday
  Yes,                                    !- Apply Thursday
  Yes,                                    !- Apply Friday
  Yes,                                    !- Apply Saturday
  DateRange,                              !- Date Specification Type
  1,                                      !- Start Month
  1,                                      !- Start Day
  12,                                     !- End Month
  31;                                     !- End Day

OS:Schedule:Day,
  {7ef3a02d-7788-4e39-8e23-05be809d83e4}, !- Handle
  heating setpoint day,                   !- Name
  {526d4246-afe9-41fa-a65a-6fb3474f085d}, !- Schedule Type Limits Name
  ,                                       !- Interpolate to Timestep
  24,                                     !- Hour 1
  0,                                      !- Minute 1
  20;                                     !- Value Until Time 1

OS:Schedule:Ruleset,
  {dff5aa6d-9117-48ca-a800-a0e6c8bbf183}, !- Handle
  cooling setpoint,                       !- Name
  {526d4246-afe9-41fa-a65a-6fb3474f085d}, !- Schedule Type Limits Name
  {c6b9f14f-9e31-4781-b95e-2212ba38b465}; !- Default Day Schedule Name

OS:Schedule:Day,
  {c6b9f14f-9e31-4781-b95e-2212ba38b465}, !- Handle
  cooling setpoint default day,           !- Name
  {526d4246-afe9-41fa-a65a-6fb3474f085d}, !- Schedule Type Limits Name
  ,                                       !- Interpolate to Timestep
  24,                                     !- Hour 1
  0,                                      !- Minute 1
  0;                                      !- Value Until Time 1

OS:Schedule:Rule,
  {e28be959-69c0-4a6c-ba02-57620683af40}, !- Handle
  cooling setpoint allday rule,           !- Name
  {dff5aa6d-9117-48ca-a800-a0e6c8bbf183}, !- Schedule Ruleset Name
  0,                                      !- Rule Order
  {719cb269-385a-4b16-9d4e-ab32b489e4fb}, !- Day Schedule Name
  Yes,                                    !- Apply Sunday
  Yes,                                    !- Apply Monday
  Yes,                                    !- Apply Tuesday
  Yes,                                    !- Apply Wednesday
  Yes,                                    !- Apply Thursday
  Yes,                                    !- Apply Friday
  Yes,                                    !- Apply Saturday
  DateRange,                              !- Date Specification Type
  1,                                      !- Start Month
  1,                                      !- Start Day
  12,                                     !- End Month
  31;                                     !- End Day

OS:Schedule:Day,
  {719cb269-385a-4b16-9d4e-ab32b489e4fb}, !- Handle
  cooling setpoint day,                   !- Name
  {526d4246-afe9-41fa-a65a-6fb3474f085d}, !- Schedule Type Limits Name
  ,                                       !- Interpolate to Timestep
  24,                                     !- Hour 1
  0,                                      !- Minute 1
  25.5555555555556;                       !- Value Until Time 1

OS:ThermostatSetpoint:DualSetpoint,
  {d1798e1a-33c7-4afc-8375-5e193216329d}, !- Handle
  conditioned space temperature setpoint, !- Name
  {e2ab7584-676a-44ae-acc5-2302c4e796ff}, !- Heating Setpoint Temperature Schedule Name
  {dff5aa6d-9117-48ca-a800-a0e6c8bbf183}, !- Cooling Setpoint Temperature Schedule Name
  0;                                      !- Temperature Difference Between Cutout And Setpoint {deltaC}

OS:ScheduleTypeLimits,
  {526d4246-afe9-41fa-a65a-6fb3474f085d}, !- Handle
  Temperature,                            !- Name
  ,                                       !- Lower Limit Value
  ,                                       !- Upper Limit Value
  Continuous,                             !- Numeric Type
  Temperature;                            !- Unit Type

OS:Surface,
  {3ad77fd0-4383-4659-a6e5-205587148389}, !- Handle
  Roof1,                                  !- Name
  RoofCeiling,                            !- Surface Type
  {6006ec84-929a-43cc-b35d-edc156ab6938}, !- Construction Name
  {26a34698-cc78-4797-8db9-7ef16791a44f}, !- Space Name
  Outdoors,                               !- Outside Boundary Condition
  ,                                       !- Outside Boundary Condition Object
  SunExposed,                             !- Sun Exposure
  WindExposed,                            !- Wind Exposure
  ,                                       !- View Factor to Ground
  ,                                       !- Number of Vertices
  -8.42346109387347, 8.42346109387347, 2.4384, !- X,Y,Z Vertex 1 {m}
  -8.42346109387347, -8.42346109387347, 2.4384, !- X,Y,Z Vertex 2 {m}
  8.42346109387347, -8.42346109387347, 2.4384, !- X,Y,Z Vertex 3 {m}
  8.42346109387347, 8.42346109387347, 2.4384; !- X,Y,Z Vertex 4 {m}

OS:AdditionalProperties,
  {b3821b0b-abae-45b2-96c3-825e0a25fad0}, !- Handle
  {3ad77fd0-4383-4659-a6e5-205587148389}, !- Object Name
  Length,                                 !- Feature Name 1
  Double,                                 !- Feature Data Type 1
  55.27205442174192,                      !- Feature Value 1
  Width,                                  !- Feature Name 2
  Double,                                 !- Feature Data Type 2
  55.272054421741913,                     !- Feature Value 2
  Azimuth,                                !- Feature Name 3
  Integer,                                !- Feature Data Type 3
  0,                                      !- Feature Value 3
  Tilt,                                   !- Feature Name 4
  Double,                                 !- Feature Data Type 4
  0,                                      !- Feature Value 4
  SurfaceType,                            !- Feature Name 5
  String,                                 !- Feature Data Type 5
  Roof;                                   !- Feature Value 5

OS:Material,
  {7b4828ff-c259-4a9e-96a1-68413a1dd222}, !- Handle
  asphalt or fiberglass shingles,         !- Name
  Rough,                                  !- Roughness
  0.00635,                                !- Thickness {m}
  0.162714,                               !- Conductivity {W/m-K}
  1121.4,                                 !- Density {kg/m3}
  1465.45,                                !- Specific Heat {J/kg-K}
  0.9,                                    !- Thermal Absorptance
  0.85,                                   !- Solar Absorptance
  0.85;                                   !- Visible Absorptance

OS:Material,
  {aa547df0-b244-4f81-bcd8-cbdfbdab284f}, !- Handle
  roof stud and cavity,                   !- Name
  Rough,                                  !- Roughness
  0.0889,                                 !- Thickness {m}
  0.491900632004487,                      !- Conductivity {W/m-K}
  50.32683,                               !- Density {kg/m3}
  1063.80987585548,                       !- Specific Heat {J/kg-K}
  0.9,                                    !- Thermal Absorptance
  0.7,                                    !- Solar Absorptance
  0.7;                                    !- Visible Absorptance

OS:Material,
  {e6b2c8dd-cc09-47f6-b2cd-0915a86cda13}, !- Handle
  gypsum board,                           !- Name
  Rough,                                  !- Roughness
  0.00254,                                !- Thickness {m}
  0.1602906,                              !- Conductivity {W/m-K}
  801,                                    !- Density {kg/m3}
  837.4,                                  !- Specific Heat {J/kg-K}
  0.9,                                    !- Thermal Absorptance
  0.6,                                    !- Solar Absorptance
  0.6;                                    !- Visible Absorptance

OS:Construction,
  {6006ec84-929a-43cc-b35d-edc156ab6938}, !- Handle
  Roof1 construction,                     !- Name
  ,                                       !- Surface Rendering Name
  {7b4828ff-c259-4a9e-96a1-68413a1dd222}, !- Layer 1
  {aa547df0-b244-4f81-bcd8-cbdfbdab284f}, !- Layer 2
  {e6b2c8dd-cc09-47f6-b2cd-0915a86cda13}; !- Layer 3

OS:Surface,
  {548290b6-e28b-45aa-97ca-bc7537de1e00}, !- Handle
  Wall1,                                  !- Name
  Wall,                                   !- Surface Type
  {33058f3f-d314-460f-a8dd-ff3a1e98f307}, !- Construction Name
  {26a34698-cc78-4797-8db9-7ef16791a44f}, !- Space Name
  Outdoors,                               !- Outside Boundary Condition
  ,                                       !- Outside Boundary Condition Object
  SunExposed,                             !- Sun Exposure
  WindExposed,                            !- Wind Exposure
  ,                                       !- View Factor to Ground
  ,                                       !- Number of Vertices
  -50.3642317384615, 51.2932621384616, 0, !- X,Y,Z Vertex 1 {m}
  -50.3642317384615, 51.2932621384616, 2.4384, !- X,Y,Z Vertex 2 {m}
  -30.8303617384615, 51.2932621384616, 2.4384, !- X,Y,Z Vertex 3 {m}
  -30.8303617384615, 51.2932621384616, 0; !- X,Y,Z Vertex 4 {m}

OS:AdditionalProperties,
  {5a0906dc-12c0-47bb-9622-21479f2deea7}, !- Handle
  {548290b6-e28b-45aa-97ca-bc7537de1e00}, !- Object Name
  Length,                                 !- Feature Name 1
  Double,                                 !- Feature Data Type 1
  64.087499999999991,                     !- Feature Value 1
  Azimuth,                                !- Feature Name 2
  Integer,                                !- Feature Data Type 2
  0,                                      !- Feature Value 2
  Tilt,                                   !- Feature Name 3
  Double,                                 !- Feature Data Type 3
  90,                                     !- Feature Value 3
  SurfaceType,                            !- Feature Name 4
  String,                                 !- Feature Data Type 4
  Wall;                                   !- Feature Value 4

OS:Material,
  {91672cb4-094d-4529-a21b-5b6de563ccb2}, !- Handle
  wood siding,                            !- Name
  Rough,                                  !- Roughness
  0.0254,                                 !- Thickness {m}
  0.1024175,                              !- Conductivity {W/m-K}
  544.68,                                 !- Density {kg/m3}
  1172.36,                                !- Specific Heat {J/kg-K}
  0.9,                                    !- Thermal Absorptance
  0.7,                                    !- Solar Absorptance
  0.7;                                    !- Visible Absorptance

OS:Material,
  {de28d35f-3fdb-49cf-b11e-0599dcca09c5}, !- Handle
  osb sheathing 0.5 in.,                  !- Name
  Rough,                                  !- Roughness
  0.0127,                                 !- Thickness {m}
  0.1154577,                              !- Conductivity {W/m-K}
  512.64,                                 !- Density {kg/m3}
  1214.23,                                !- Specific Heat {J/kg-K}
  0.9,                                    !- Thermal Absorptance
  0.7,                                    !- Solar Absorptance
  0.7;                                    !- Visible Absorptance

OS:Material,
  {ba18f434-7f1d-487d-8ad8-3c687d2aa892}, !- Handle
  wall stud and cavity,                   !- Name
  Rough,                                  !- Roughness
  0.1397,                                 !- Thickness {m}
  0.0929021674204099,                     !- Conductivity {W/m-K}
  139.0536,                               !- Density {kg/m3}
  1170.23755760369,                       !- Specific Heat {J/kg-K}
  0.9,                                    !- Thermal Absorptance
  0.7,                                    !- Solar Absorptance
  0.7;                                    !- Visible Absorptance

OS:Material,
  {60d4a1f6-b9c3-4c35-87ab-b140675f09cc}, !- Handle
  gypsum board 1,                         !- Name
  Rough,                                  !- Roughness
  0.0127,                                 !- Thickness {m}
  0.1602906,                              !- Conductivity {W/m-K}
  801,                                    !- Density {kg/m3}
  837.4,                                  !- Specific Heat {J/kg-K}
  0.9,                                    !- Thermal Absorptance
  0.6,                                    !- Solar Absorptance
  0.6;                                    !- Visible Absorptance

OS:Construction,
  {33058f3f-d314-460f-a8dd-ff3a1e98f307}, !- Handle
  Wall1 construction,                     !- Name
  ,                                       !- Surface Rendering Name
  {91672cb4-094d-4529-a21b-5b6de563ccb2}, !- Layer 1
  {de28d35f-3fdb-49cf-b11e-0599dcca09c5}, !- Layer 2
  {ba18f434-7f1d-487d-8ad8-3c687d2aa892}, !- Layer 3
  {60d4a1f6-b9c3-4c35-87ab-b140675f09cc}; !- Layer 4

OS:Surface,
  {7b105069-cb95-4248-8cd7-a442abe383fb}, !- Handle
  Wall2,                                  !- Name
  Wall,                                   !- Surface Type
  {01cf2956-225c-41f7-8f94-61418c60689e}, !- Construction Name
  {26a34698-cc78-4797-8db9-7ef16791a44f}, !- Space Name
  Outdoors,                               !- Outside Boundary Condition
  ,                                       !- Outside Boundary Condition Object
  SunExposed,                             !- Sun Exposure
  WindExposed,                            !- Wind Exposure
  ,                                       !- View Factor to Ground
  ,                                       !- Number of Vertices
  51.2932621384616, -36.1953302, 0,       !- X,Y,Z Vertex 1 {m}
  51.2932621384616, -36.1953302, 2.4384,  !- X,Y,Z Vertex 2 {m}
  51.2932621384616, -45.9641702, 2.4384,  !- X,Y,Z Vertex 3 {m}
  51.2932621384616, -45.9641702, 0;       !- X,Y,Z Vertex 4 {m}

OS:AdditionalProperties,
  {d4c25c19-215d-4de5-a069-bf6d8a3584df}, !- Handle
  {7b105069-cb95-4248-8cd7-a442abe383fb}, !- Object Name
  Length,                                 !- Feature Name 1
  Double,                                 !- Feature Data Type 1
  32.049999999999997,                     !- Feature Value 1
  Azimuth,                                !- Feature Name 2