
OS:Version,
  {496c655c-bc19-4eb5-832f-0c9dfc8f1dda}, !- Handle
  3.9.0;                                  !- Version Identifier

OS:SimulationControl,
  {870892ce-8d82-43fc-a408-f20a9c978d88}, !- Handle
  ,                                       !- Do Zone Sizing Calculation
  ,                                       !- Do System Sizing Calculation
  ,                                       !- Do Plant Sizing Calculation
  No;                                     !- Run Simulation for Sizing Periods

OS:Timestep,
  {8859a17d-bb96-437a-8a93-f221993939fe}, !- Handle
  1;                                      !- Number of Timesteps per Hour

OS:ShadowCalculation,
  {ee8d8cda-a93e-4408-8ed2-876458791a7b}, !- Handle
  PolygonClipping,                        !- Shading Calculation Method
  ,                                       !- Shading Calculation Update Frequency Method
  20,                                     !- Shading Calculation Update Frequency
  200,                                    !- Maximum Figures in Shadow Overlap Calculations
  ,                                       !- Polygon Clipping Algorithm
  512,                                    !- Pixel Counting Resolution
  ,                                       !- Sky Diffuse Modeling Algorithm
  No,                                     !- Output External Shading Calculation Results
  No,                                     !- Disable Self-Shading Within Shading Zone Groups
  No;                                     !- Disable Self-Shading From Shading Zone Groups to Other Zones

OS:SurfaceConvectionAlgorithm:Outside,
  {1d9a5bc3-f476-4859-a20d-00ccd31e5a85}, !- Handle
  DOE-2;                                  !- Algorithm

OS:SurfaceConvectionAlgorithm:Inside,
  {f1791fcc-a9bc-498f-80a6-3544beb10ded}, !- Handle
  TARP;                                   !- Algorithm

OS:ZoneCapacitanceMultiplier:ResearchSpecial,
  {97da2832-327c-426a-ada2-1de1e2a7e5af}, !- Handle
  7,                                      !- Temperature Capacity Multiplier
  15,                                     !- Humidity Capacity Multiplier
  ;                                       !- Carbon Dioxide Capacity Multiplier

OS:ConvergenceLimits,
  {4a6bccc6-2ef2-408e-bf55-1c24f653594b}, !- Handle
  0;                                      !- Minimum System Timestep {minutes}

OS:RunPeriod,
  {36d2256e-481b-462d-b6db-7e7c25e15d4b}, !- Handle
  Run Period 1,                           !- Name
  1,                                      !- Begin Month
  1,                                      !- Begin Day of Month
  12,                                     !- End Month
  31,                                     !- End Day of Month
  ,                                       !- Use Weather File Holidays and Special Days
  ,                                       !- Use Weather File Daylight Saving Period
  ,                                       !- Apply Weekend Holiday Rule
  ,                                       !- Use Weather File Rain Indicators
  ,                                       !- Use Weather File Snow Indicators
  ;                                       !- Number of Times Runperiod to be Repeated

OS:PerformancePrecisionTradeoffs,
  {935aeb06-9a18-4401-bba3-442b987a1608}, !- Handle
  ,                                       !- Use Coil Direct Solutions
  CarrollMRT;                             !- Zone Radiant Exchange Algorithm

OS:WeatherFile,
  {b34102e1-95b1-4c05-9624-b71bb355bb57}, !- Handle
  Buffalo Niagara Intl Ap,                !- City
  NY,                                     !- State Province Region
  USA,                                    !- Country
  TMY3,                                   !- Data Source
  725280,                                 !- WMO Number
  42.93,                                  !- Latitude {deg}
  -78.73,                                 !- Longitude {deg}
  -5,                                     !- Time Zone {hr}
  215,                                    !- Elevation {m}
  /Users/nmoore/github/urbanopt-example-geojson-project/example_project/weather/USA_NY_Buffalo-Greater.Buffalo.Intl.AP.725280_TMY3.epw, !- Url
  6B50E0FF,                               !- Checksum
  ,                                       !- Start Date Actual Year
  Sunday;                                 !- Start Day of Week

OS:YearDescription,
  {21aaffc5-855c-471e-aab2-55ecb345f5b8}, !- Handle
  2007,                                   !- Calendar Year
  ,                                       !- Day of Week for Start Day
  ;                                       !- Is Leap Year

OS:Site,
  {1108a08b-0e8d-46ce-b3cd-bd90e94423cd}, !- Handle
  Buffalo Niagara Intl Ap_NY,             !- Name
  42.93,                                  !- Latitude {deg}
  -78.73,                                 !- Longitude {deg}
  -5,                                     !- Time Zone {hr}
  215,                                    !- Elevation {m}
  Suburbs,                                !- Terrain
  Yes;                                    !- Keep Site Location Information

OS:RunPeriodControl:DaylightSavingTime,
  {6ab2aaf5-ddbc-43af-b368-e2667c5f3739}, !- Handle
  Mar 12,                                 !- Start Date
  Nov 5;                                  !- End Date

OS:Site:GroundTemperature:Shallow,
  {6e70fbb4-f7c0-4c6d-88e3-fece79c11526}, !- Handle
  4.30207395723828,                       !- January Surface Ground Temperature {C}
  2.29327249652502,                       !- February Surface Ground Temperature {C}
  2.13240047156047,                       !- March Surface Ground Temperature {C}
  3.08567940719286,                       !- April Surface Ground Temperature {C}
  6.91256312497526,                       !- May Surface Ground Temperature {C}
  10.7216195949507,                       !- June Surface Ground Temperature {C}
  14.0238679822574,                       !- July Surface Ground Temperature {C}
  16.1157611184724,                       !- August Surface Ground Temperature {C}
  16.2934789303462,                       !- September Surface Ground Temperature {C}
  14.5920754632847,                       !- October Surface Ground Temperature {C}
  11.374036348653,                        !- November Surface Ground Temperature {C}
  7.68182621661674;                       !- December Surface Ground Temperature {C}

OS:ThermalZone,
  {522c2baf-4daf-4cfd-a4cf-f5087cfa2225}, !- Handle
  conditioned space,                      !- Name
  1,                                      !- Multiplier
  ,                                       !- Ceiling Height {m}
  346.03186535424,                        !- Volume {m3}
  ,                                       !- Floor Area {m2}
  ,                                       !- Zone Inside Convection Algorithm
  ,                                       !- Zone Outside Convection Algorithm
  ,                                       !- Zone Conditioning Equipment List Name
  {1cc49be5-c366-43e5-bf0e-2d73394a4a73}, !- Zone Air Inlet Port List
  {52570a5a-9d5e-4f0e-a0f9-b8dc757bb435}, !- Zone Air Exhaust Port List
  {e6ad02e3-4fe8-4945-9955-1c19a5be7ef4}, !- Zone Air Node Name
  {c4ecda1c-2ae2-4738-a8ac-e68fb77ed78b}, !- Zone Return Air Port List
  ,                                       !- Primary Daylighting Control Name
  ,                                       !- Fraction of Zone Controlled by Primary Daylighting Control
  ,                                       !- Secondary Daylighting Control Name
  ,                                       !- Fraction of Zone Controlled by Secondary Daylighting Control
  ,                                       !- Illuminance Map Name
  ,                                       !- Group Rendering Name
  {92dc54de-13fa-44f4-ae20-6f5167a5bfb4}, !- Thermostat Name
  No;                                     !- Use Ideal Air Loads

OS:Node,
  {1e741807-04a2-4389-aceb-9dc069b9ae4c}, !- Handle
  Node 1,                                 !- Name
  {e6ad02e3-4fe8-4945-9955-1c19a5be7ef4}, !- Inlet Port
  ;                                       !- Outlet Port

OS:Connection,
  {e6ad02e3-4fe8-4945-9955-1c19a5be7ef4}, !- Handle
  {522c2baf-4daf-4cfd-a4cf-f5087cfa2225}, !- Source Object
  11,                                     !- Outlet Port
  {1e741807-04a2-4389-aceb-9dc069b9ae4c}, !- Target Object
  2;                                      !- Inlet Port

OS:PortList,
  {1cc49be5-c366-43e5-bf0e-2d73394a4a73}, !- Handle
  {522c2baf-4daf-4cfd-a4cf-f5087cfa2225}, !- HVAC Component
  {5103f0b8-5808-42b1-8d59-2968d380462e}; !- Port 1

OS:PortList,
  {52570a5a-9d5e-4f0e-a0f9-b8dc757bb435}, !- Handle
  {522c2baf-4daf-4cfd-a4cf-f5087cfa2225}; !- HVAC Component

OS:PortList,
  {c4ecda1c-2ae2-4738-a8ac-e68fb77ed78b}, !- Handle
  {522c2baf-4daf-4cfd-a4cf-f5087cfa2225}, !- HVAC Component
  {b2346e3c-e052-4335-9c89-1dd181123e1e}; !- Port 1

OS:Sizing:Zone,
  {2b7fce6c-9538-49a2-95b2-b8fbb8da2d80}, !- Handle
  {522c2baf-4daf-4cfd-a4cf-f5087cfa2225}, !- Zone or ZoneList Name
  SupplyAirTemperature,                   !- Zone Cooling Design Supply Air Temperature Input Method
  14,                                     !- Zone Cooling Design Supply Air Temperature {C}
  11.11,                                  !- Zone Cooling Design Supply Air Temperature Difference {deltaC}
  SupplyAirTemperature,                   !- Zone Heating Design Supply Air Temperature Input Method
  40,                                     !- Zone Heating Design Supply Air Temperature {C}
  11.11,                                  !- Zone Heating Design Supply Air Temperature Difference {deltaC}
  0.0085,                                 !- Zone Cooling Design Supply Air Humidity Ratio {kg-H2O/kg-air}
  0.008,                                  !- Zone Heating Design Supply Air Humidity Ratio {kg-H2O/kg-air}
  ,                                       !- Zone Heating Sizing Factor
  ,                                       !- Zone Cooling Sizing Factor
  DesignDay,                              !- Cooling Design Air Flow Method
  ,                                       !- Cooling Design Air Flow Rate {m3/s}
  ,                                       !- Cooling Minimum Air Flow per Zone Floor Area {m3/s-m2}
  ,                                       !- Cooling Minimum Air Flow {m3/s}
  ,                                       !- Cooling Minimum Air Flow Fraction
  DesignDay,                              !- Heating Design Air Flow Method
  ,                                       !- Heating Design Air Flow Rate {m3/s}
  ,                                       !- Heating Maximum Air Flow per Zone Floor Area {m3/s-m2}
  ,                                       !- Heating Maximum Air Flow {m3/s}
  ,                                       !- Heating Maximum Air Flow Fraction
  No,                                     !- Account for Dedicated Outdoor Air System
  NeutralSupplyAir,                       !- Dedicated Outdoor Air System Control Strategy
  autosize,                               !- Dedicated Outdoor Air Low Setpoint Temperature for Design {C}
  autosize,                               !- Dedicated Outdoor Air High Setpoint Temperature for Design {C}
  Sensible Load Only No Latent Load,      !- Zone Load Sizing Method
  HumidityRatioDifference,                !- Zone Latent Cooling Design Supply Air Humidity Ratio Input Method
  ,                                       !- Zone Dehumidification Design Supply Air Humidity Ratio {kgWater/kgDryAir}
  0.005,                                  !- Zone Cooling Design Supply Air Humidity Ratio Difference {kgWater/kgDryAir}
  HumidityRatioDifference,                !- Zone Latent Heating Design Supply Air Humidity Ratio Input Method
  ,                                       !- Zone Humidification Design Supply Air Humidity Ratio {kgWater/kgDryAir}
  0.005,                                  !- Zone Humidification Design Supply Air Humidity Ratio Difference {kgWater/kgDryAir}
  ,                                       !- Zone Humidistat Dehumidification Set Point Schedule Name
  ,                                       !- Zone Humidistat Humidification Set Point Schedule Name
  ,                                       !- Design Zone Air Distribution Effectiveness in Cooling Mode
  ,                                       !- Design Zone Air Distribution Effectiveness in Heating Mode
  ,                                       !- Design Zone Secondary Recirculation Fraction {dimensionless}
  ,                                       !- Design Minimum Zone Ventilation Efficiency {dimensionless}
  Coincident;                             !- Sizing Option

OS:ZoneHVAC:EquipmentList,
  {d2860f8a-87d7-4ace-8d3c-b3246b37c900}, !- Handle
  Zone HVAC Equipment List 1,             !- Name
  {522c2baf-4daf-4cfd-a4cf-f5087cfa2225}, !- Thermal Zone
  ,                                       !- Load Distribution Scheme
  {4fd26c43-5100-4d5a-8359-9695aed8fe02}, !- Zone Equipment 1
  1,                                      !- Zone Equipment Cooling Sequence 1
  1,                                      !- Zone Equipment Heating or No-Load Sequence 1
  {902b346d-aba8-484d-903d-cc5a4cc10d83}, !- Zone Equipment Sequential Cooling Fraction Schedule Name 1
  {3a4d3d5b-5065-4ca7-a0ca-05d9ff8c8984}; !- Zone Equipment Sequential Heating Fraction Schedule Name 1

OS:AdditionalProperties,
  {7d9c9048-bc02-403a-be1f-2620288c30d2}, !- Handle
  {522c2baf-4daf-4cfd-a4cf-f5087cfa2225}, !- Object Name
  ObjectType,                             !- Feature Name 1
  String,                                 !- Feature Data Type 1
  conditioned space;                      !- Feature Value 1

OS:Space,
  {24f46da0-ef73-46a3-84d4-470a2e5db511}, !- Handle
  conditioned space 1,                    !- Name
  ,                                       !- Space Type Name
  ,                                       !- Default Construction Set Name
  ,                                       !- Default Schedule Set Name
  ,                                       !- Direction of Relative North {deg}
  ,                                       !- X Origin {m}
  ,                                       !- Y Origin {m}
  ,                                       !- Z Origin {m}
  ,                                       !- Building Story Name
  {522c2baf-4daf-4cfd-a4cf-f5087cfa2225}, !- Thermal Zone Name
  ,                                       !- Part of Total Floor Area
  ,                                       !- Design Specification Outdoor Air Object Name
  ,                                       !- Building Unit Name
  346.03186535424;                        !- Volume {m3}

OS:Schedule:Ruleset,
  {d54b0eeb-627f-4263-a18d-1a3cb88bf533}, !- Handle
  heating setpoint,                       !- Name
  {61f08a15-4c98-4793-9deb-738428f384b6}, !- Schedule Type Limits Name
  {9a370645-c624-41c0-90e9-d8a04b889eee}; !- Default Day Schedule Name

OS:Schedule:Day,
  {9a370645-c624-41c0-90e9-d8a04b889eee}, !- Handle
  heating setpoint default day,           !- Name
  {61f08a15-4c98-4793-9deb-738428f384b6}, !- Schedule Type Limits Name
  ,                                       !- Interpolate to Timestep
  24,                                     !- Hour 1
  0,                                      !- Minute 1
  0;                                      !- Value Until Time 1

OS:Schedule:Rule,
  {27aa4e99-f2ba-4729-9554-b9a46fd2b200}, !- Handle
  heating setpoint allday rule,           !- Name
  {d54b0eeb-627f-4263-a18d-1a3cb88bf533}, !- Schedule Ruleset Name
  0,                                      !- Rule Order
  {38f5d2c1-d9a9-4378-ba1d-499b1ac6ddcd}, !- Day Schedule Name
  Yes,                                    !- Apply Sunday
  Yes,                                    !- Apply Monday
  Yes,                                    !- Apply Tuesday
  Yes,                                    !- Apply Wednesday
  Yes,                                    !- Apply Thursday
  Yes,                                    !- Apply Friday
  Yes,                                    !- Apply Saturday
  DateRange,                              !- Date Specification Type
  1,                                      !- Start Month
  1,                                      !- Start Day
  12,                                     !- End Month
  31;                                     !- End Day

OS:Schedule:Day,
  {38f5d2c1-d9a9-4378-ba1d-499b1ac6ddcd}, !- Handle
  heating setpoint day,                   !- Name
  {61f08a15-4c98-4793-9deb-738428f384b6}, !- Schedule Type Limits Name
  ,                                       !- Interpolate to Timestep
  24,                                     !- Hour 1
  0,                                      !- Minute 1
  20;                                     !- Value Until Time 1

OS:Schedule:Ruleset,
  {7b6f7925-66ac-4b3d-ab78-ab69d0131e5b}, !- Handle
  cooling setpoint,                       !- Name
  {61f08a15-4c98-4793-9deb-738428f384b6}, !- Schedule Type Limits Name
  {30d9f62e-abd5-411f-b0bd-3b41d8c25858}; !- Default Day Schedule Name

OS:Schedule:Day,
  {30d9f62e-abd5-411f-b0bd-3b41d8c25858}, !- Handle
  cooling setpoint default day,           !- Name
  {61f08a15-4c98-4793-9deb-738428f384b6}, !- Schedule Type Limits Name
  ,                                       !- Interpolate to Timestep
  24,                                     !- Hour 1
  0,                                      !- Minute 1
  0;                                      !- Value Until Time 1

OS:Schedule:Rule,
  {a2ee8129-01cc-419a-a88a-7604de098093}, !- Handle
  cooling setpoint allday rule,           !- Name
  {7b6f7925-66ac-4b3d-ab78-ab69d0131e5b}, !- Schedule Ruleset Name
  0,                                      !- Rule Order
  {beb241af-7430-4c4e-b36f-f476c814c39e}, !- Day Schedule Name
  Yes,                                    !- Apply Sunday
  Yes,                                    !- Apply Monday
  Yes,                                    !- Apply Tuesday
  Yes,                                    !- Apply Wednesday
  Yes,                                    !- Apply Thursday
  Yes,                                    !- Apply Friday
  Yes,                                    !- Apply Saturday
  DateRange,                              !- Date Specification Type
  1,                                      !- Start Month
  1,                                      !- Start Day
  12,                                     !- End Month
  31;                                     !- End Day

OS:Schedule:Day,
  {beb241af-7430-4c4e-b36f-f476c814c39e}, !- Handle
  cooling setpoint day,                   !- Name
  {61f08a15-4c98-4793-9deb-738428f384b6}, !- Schedule Type Limits Name
  ,                                       !- Interpolate to Timestep
  24,                                     !- Hour 1
  0,                                      !- Minute 1
  25.5555555555556;                       !- Value Until Time 1

OS:ThermostatSetpoint:DualSetpoint,
  {92dc54de-13fa-44f4-ae20-6f5167a5bfb4}, !- Handle
  conditioned space temperature setpoint, !- Name
  {d54b0eeb-627f-4263-a18d-1a3cb88bf533}, !- Heating Setpoint Temperature Schedule Name
  {7b6f7925-66ac-4b3d-ab78-ab69d0131e5b}, !- Cooling Setpoint Temperature Schedule Name
  0;                                      !- Temperature Difference Between Cutout And Setpoint {deltaC}

OS:ScheduleTypeLimits,
  {61f08a15-4c98-4793-9deb-738428f384b6}, !- Handle
  Temperature,                            !- Name
  ,                                       !- Lower Limit Value
  ,                                       !- Upper Limit Value
  Continuous,                             !- Numeric Type
  Temperature;                            !- Unit Type

OS:Surface,
  {93eccccd-cdc4-4056-b985-356e395b925e}, !- Handle
  Roof1,                                  !- Name
  RoofCeiling,                            !- Surface Type
  {cc5455b3-5b61-4f06-9188-fb564e2634c3}, !- Construction Name
  {24f46da0-ef73-46a3-84d4-470a2e5db511}, !- Space Name
  Outdoors,                               !- Outside Boundary Condition
  ,                                       !- Outside Boundary Condition Object
  SunExposed,                             !- Sun Exposure
  WindExposed,                            !- Wind Exposure
  ,                                       !- View Factor to Ground
  ,                                       !- Number of Vertices
  -5.95628646053898, 5.95628646053898, 2.4384, !- X,Y,Z Vertex 1 {m}
  -5.95628646053898, -5.95628646053898, 2.4384, !- X,Y,Z Vertex 2 {m}
  5.95628646053898, -5.95628646053898, 2.4384, !- X,Y,Z Vertex 3 {m}
  5.95628646053898, 5.95628646053898, 2.4384; !- X,Y,Z Vertex 4 {m}

OS:AdditionalProperties,
  {6e609792-3b34-47bd-b4b4-8fad83ea7043}, !- Handle
  {93eccccd-cdc4-4056-b985-356e395b925e}, !- Object Name
  Length,                                 !- Feature Name 1
  Double,                                 !- Feature Data Type 1
  39.083244491725608,                     !- Feature Value 1
  Width,                                  !- Feature Name 2
  Double,                                 !- Feature Data Type 2
  39.083244491725608,                     !- Feature Value 2
  Azimuth,                                !- Feature Name 3
  Integer,                                !- Feature Data Type 3
  0,                                      !- Feature Value 3
  Tilt,                                   !- Feature Name 4
  Double,                                 !- Feature Data Type 4
  0,                                      !- Feature Value 4
  SurfaceType,                            !- Feature Name 5
  String,                                 !- Feature Data Type 5
  Roof;                                   !- Feature Value 5

OS:Material,
  {3ac4a3e2-f6f4-427e-a0a9-e489c9354d5a}, !- Handle
  asphalt or fiberglass shingles,         !- Name
  Rough,                                  !- Roughness
  0.00635,                                !- Thickness {m}
  0.162714,                               !- Conductivity {W/m-K}
  1121.4,                                 !- Density {kg/m3}
  1465.45,                                !- Specific Heat {J/kg-K}
  0.9,                                    !- Thermal Absorptance
  0.85,                                   !- Solar Absorptance
  0.85;                                   !- Visible Absorptance

OS:Material,
  {52960bac-0351-477c-9bd9-1b62368d42b2}, !- Handle
  roof stud and cavity,                   !- Name
  Rough,                                  !- Roughness
  0.0889,                                 !- Thickness {m}
  0.491900632004487,                      !- Conductivity {W/m-K}
  50.32683,                               !- Density {kg/m3}
  1063.80987585548,                       !- Specific Heat {J/kg-K}
  0.9,                                    !- Thermal Absorptance
  0.7,                                    !- Solar Absorptance
  0.7;                                    !- Visible Absorptance

OS:Material,
  {66299199-0c81-4eb7-a552-18f22a3966ff}, !- Handle
  gypsum board,                           !- Name
  Rough,                                  !- Roughness
  0.00254,                                !- Thickness {m}
  0.1602906,                              !- Conductivity {W/m-K}
  801,                                    !- Density {kg/m3}
  837.4,                                  !- Specific Heat {J/kg-K}
  0.9,                                    !- Thermal Absorptance
  0.6,                                    !- Solar Absorptance
  0.6;                                    !- Visible Absorptance

OS:Construction,
  {cc5455b3-5b61-4f06-9188-fb564e2634c3}, !- Handle
  Roof1 construction,                     !- Name
  ,                                       !- Surface Rendering Name
  {3ac4a3e2-f6f4-427e-a0a9-e489c9354d5a}, !- Layer 1
  {52960bac-0351-477c-9bd9-1b62368d42b2}, !- Layer 2
  {66299199-0c81-4eb7-a552-18f22a3966ff}; !- Layer 3

OS:Surface,
  {ddccea6d-db28-4f73-95c4-8c26120b2bf1}, !- Handle
  Wall1,                                  !- Name
  Wall,                                   !- Surface Type
  {a984f84d-b9d8-4e9c-bc03-2381280938a7}, !- Construction Name
  {24f46da0-ef73-46a3-84d4-470a2e5db511}, !- Space Name
  Outdoors,                               !- Outside Boundary Condition
  ,                                       !- Outside Boundary Condition Object
  SunExposed,                             !- Sun Exposure
  WindExposed,                            !- Wind Exposure
  ,                                       !- View Factor to Ground
  ,                                       !- Number of Vertices
  -29.479875, 30.4089054, 0,              !- X,Y,Z Vertex 1 {m}
  -29.479875, 30.4089054, 4.8768,         !- X,Y,Z Vertex 2 {m}
  -21.055965, 30.4089054, 4.8768,         !- X,Y,Z Vertex 3 {m}
  -21.055965, 30.4089054, 0;              !- X,Y,Z Vertex 4 {m}

OS:AdditionalProperties,
  {cff1ec24-74ff-489e-9371-b21cea14f1f9}, !- Handle
  {ddccea6d-db28-4f73-95c4-8c26120b2bf1}, !- Object Name
  Length,                                 !- Feature Name 1
  Double,                                 !- Feature Data Type 1
  27.637499999999999,                     !- Feature Value 1
  Azimuth,                                !- Feature Name 2
  Integer,                                !- Feature Data Type 2
  0,                                      !- Feature Value 2
  Tilt,                                   !- Feature Name 3
  Double,                                 !- Feature Data Type 3
  90,                                     !- Feature Value 3
  SurfaceType,                            !- Feature Name 4
  String,                                 !- Feature Data Type 4
  Wall;                                   !- Feature Value 4

OS:Material,
  {7c5416e9-2493-460b-add7-8b8a0a749bef}, !- Handle
  wood siding,                            !- Name
  Rough,                                  !- Roughness
  0.0254,                                 !- Thickness {m}
  0.1024175,                              !- Conductivity {W/m-K}
  544.68,                                 !- Density {kg/m3}
  1172.36,                                !- Specific Heat {J/kg-K}
  0.9,                                    !- Thermal Absorptance
  0.7,                                    !- Solar Absorptance
  0.7;                                    !- Visible Absorptance

OS:Material,
  {72cf5ace-52e3-414f-b354-53acabce3b39}, !- Handle
  osb sheathing 0.5 in.,                  !- Name
  Rough,                                  !- Roughness
  0.0127,                                 !- Thickness {m}
  0.1154577,                              !- Conductivity {W/m-K}
  512.64,                                 !- Density {kg/m3}
  1214.23,                                !- Specific Heat {J/kg-K}
  0.9,                                    !- Thermal Absorptance
  0.7,                                    !- Solar Absorptance
  0.7;                                    !- Visible Absorptance

OS:Material,
  {7cc42e4a-952c-4850-82e1-92c5affe7018}, !- Handle
  wall stud and cavity,                   !- Name
  Rough,                                  !- Roughness
  0.1397,                                 !- Thickness {m}
  0.0929021674204099,                     !- Conductivity {W/m-K}
  139.0536,                               !- Density {kg/m3}
  1170.23755760369,                       !- Specific Heat {J/kg-K}
  0.9,                                    !- Thermal Absorptance
  0.7,                                    !- Solar Absorptance
  0.7;                                    !- Visible Absorptance

OS:Material,
  {7fdfe610-8882-4eb6-8fdb-9e3e5db3eb68}, !- Handle
  gypsum board 1,                         !- Name
  Rough,                                  !- Roughness
  0.0127,                                 !- Thickness {m}
  0.1602906,                              !- Conductivity {W/m-K}
  801,                                    !- Density {kg/m3}
  837.4,                                  !- Specific Heat {J/kg-K}
  0.9,                                    !- Thermal Absorptance
  0.6,                                    !- Solar Absorptance
  0.6;                                    !- Visible Absorptance

OS:Construction,
  {a984f84d-b9d8-4e9c-bc03-2381280938a7}, !- Handle
  Wall1 construction,                     !- Name
  ,                                       !- Surface Rendering Name
  {7c5416e9-2493-460b-add7-8b8a0a749bef}, !- Layer 1
  {72cf5ace-52e3-414f-b354-53acabce3b39}, !- Layer 2
  {7cc42e4a-952c-4850-82e1-92c5affe7018}, !- Layer 3
  {7fdfe610-8882-4eb6-8fdb-9e3e5db3eb68}; !- Layer 4

OS:Surface,
  {c6a7dc69-a02e-4137-a70e-03f1fb83996d}, !- Handle
  Wall2,                                  !- Name
  Wall,                                   !- Surface Type
  {46b50248-9191-4064-8853-f0bd6cb50e32}, !- Construction Name
  {24f46da0-ef73-46a3-84d4-470a2e5db511}, !- Space Name
  Outdoors,                               !- Outside Boundary Condition
  ,                                       !- Outside Boundary Condition Object
  SunExposed,                             !- Sun Exposure
  WindExposed,                            !- Wind Exposure
  ,                                       !- View Factor to Ground
  ,                                       !- Number of Vertices
  30.4089054, -26.1969504, 0,             !- X,Y,Z Vertex 1 {m}
  30.4089054, -26.1969504, 4.8768,        !- X,Y,Z Vertex 2 {m}
  30.4089054, -30.4089054, 4.8768,        !- X,Y,Z Vertex 3 {m}
  30.4089054, -30.4089054, 0;             !- X,Y,Z Vertex 4 {m}

OS:AdditionalProperties,
  {4c59dae9-76f7-46a3-bbba-0594df65bbd4}, !- Handle
  {c6a7dc69-a02e-4137-a70e-03f1fb83996d}, !- Object Name
  Length,                                 !- Feature Name 1
  Double,                                 !- Feature Data Type 1
  13.81875,                               !- Feature Value 1
  Azimuth,                                !- Feature Name 2