
OS:Version,
  {8ae533ab-614c-4c33-a250-e3643764009b}, !- Handle
  3.10.0;                                 !- Version Identifier

OS:SimulationControl,
  {82b3ea10-370f-4519-b4bb-7a1941a76299}, !- Handle
  ,                                       !- Do Zone Sizing Calculation
  ,                                       !- Do System Sizing Calculation
  ,                                       !- Do Plant Sizing Calculation
  No;                                     !- Run Simulation for Sizing Periods

OS:Timestep,
  {ff47489b-27fe-4363-947b-e5c934972626}, !- Handle
  1;                                      !- Number of Timesteps per Hour

OS:ShadowCalculation,
  {737cc736-bd85-4b6f-bdfd-991b8c071356}, !- Handle
  PolygonClipping,                        !- Shading Calculation Method
  ,                                       !- Shading Calculation Update Frequency Method
  20,                                     !- Shading Calculation Update Frequency
  200,                                    !- Maximum Figures in Shadow Overlap Calculations
  ,                                       !- Polygon Clipping Algorithm
  512,                                    !- Pixel Counting Resolution
  ,                                       !- Sky Diffuse Modeling Algorithm
  No,                                     !- Output External Shading Calculation Results
  No,                                     !- Disable Self-Shading Within Shading Zone Groups
  No;                                     !- Disable Self-Shading From Shading Zone Groups to Other Zones

OS:SurfaceConvectionAlgorithm:Outside,
  {f412244a-a3d4-4d72-a5c1-076606512e80}, !- Handle
  DOE-2;                                  !- Algorithm

OS:SurfaceConvectionAlgorithm:Inside,
  {10fa5f34-f8d0-4e97-bebd-f89047dfac85}, !- Handle
  TARP;                                   !- Algorithm

OS:ZoneCapacitanceMultiplier:ResearchSpecial,
  {08f998ff-066a-43a8-b46b-cb16bd8c0c9d}, !- Handle
  7,                                      !- Temperature Capacity Multiplier
  15,                                     !- Humidity Capacity Multiplier
  ;                                       !- Carbon Dioxide Capacity Multiplier

OS:ConvergenceLimits,
  {6c45b7bd-7d44-46dc-95e5-b46fa113cb5b}, !- Handle
  0;                                      !- Minimum System Timestep {minutes}

OS:RunPeriod,
  {93bc4025-2417-4a7f-9c38-28d226e22f23}, !- Handle
  Run Period 1,                           !- Name
  1,                                      !- Begin Month
  1,                                      !- Begin Day of Month
  12,                                     !- End Month
  31,                                     !- End Day of Month
  ,                                       !- Use Weather File Holidays and Special Days
  ,                                       !- Use Weather File Daylight Saving Period
  ,                                       !- Apply Weekend Holiday Rule
  ,                                       !- Use Weather File Rain Indicators
  ,                                       !- Use Weather File Snow Indicators
  ;                                       !- Number of Times Runperiod to be Repeated

OS:PerformancePrecisionTradeoffs,
  {7d6742ef-a24c-4e2d-b8c1-cd1c5628c966}, !- Handle
  ,                                       !- Use Coil Direct Solutions
  CarrollMRT;                             !- Zone Radiant Exchange Algorithm

OS:WeatherFile,
  {2396804c-475b-4858-bbdc-a3f578135b49}, !- Handle
  Buffalo Niagara Intl Ap,                !- City
  NY,                                     !- State Province Region
  USA,                                    !- Country
  TMY3,                                   !- Data Source
  725280,                                 !- WMO Number
  42.93,                                  !- Latitude {deg}
  -78.73,                                 !- Longitude {deg}
  -5,                                     !- Time Zone {hr}
  215,                                    !- Elevation {m}
  /Users/nmoore/github/urbanopt-example-geojson-project/example_project/weather/USA_NY_Buffalo-Greater.Buffalo.Intl.AP.725280_TMY3.epw, !- Url
  6B50E0FF,                               !- Checksum
  ,                                       !- Start Date Actual Year
  Sunday;                                 !- Start Day of Week

OS:YearDescription,
  {ab39dadb-45fe-422a-b177-68b4793729dc}, !- Handle
  2007,                                   !- Calendar Year
  ,                                       !- Day of Week for Start Day
  ;                                       !- Is Leap Year

OS:Site,
  {e2f26990-9066-4249-bc87-ed0b0af5cf75}, !- Handle
  Buffalo Niagara Intl Ap_NY,             !- Name
  42.93,                                  !- Latitude {deg}
  -78.73,                                 !- Longitude {deg}
  -5,                                     !- Time Zone {hr}
  215,                                    !- Elevation {m}
  Suburbs,                                !- Terrain
  Yes;                                    !- Keep Site Location Information

OS:RunPeriodControl:DaylightSavingTime,
  {1f87269f-6449-47ae-a2d8-d681ca7db14f}, !- Handle
  Mar 12,                                 !- Start Date
  Nov 5;                                  !- End Date

OS:Site:GroundTemperature:Shallow,
  {4c4f962c-b139-458e-a39c-5b6ecce88436}, !- Handle
  4.30207395723828,                       !- January Surface Ground Temperature {C}
  2.29327249652502,                       !- February Surface Ground Temperature {C}
  2.13240047156047,                       !- March Surface Ground Temperature {C}
  3.08567940719286,                       !- April Surface Ground Temperature {C}
  6.91256312497526,                       !- May Surface Ground Temperature {C}
  10.7216195949507,                       !- June Surface Ground Temperature {C}
  14.0238679822574,                       !- July Surface Ground Temperature {C}
  16.1157611184724,                       !- August Surface Ground Temperature {C}
  16.2934789303462,                       !- September Surface Ground Temperature {C}
  14.5920754632847,                       !- October Surface Ground Temperature {C}
  11.374036348653,                        !- November Surface Ground Temperature {C}
  7.68182621661674;                       !- December Surface Ground Temperature {C}

OS:ThermalZone,
  {34130963-f179-49ed-bfae-d411d049d913}, !- Handle
  conditioned space,                      !- Name
  1,                                      !- Multiplier
  ,                                       !- Ceiling Height {m}
  346.03186535424,                        !- Volume {m3}
  ,                                       !- Floor Area {m2}
  ,                                       !- Zone Inside Convection Algorithm
  ,                                       !- Zone Outside Convection Algorithm
  ,                                       !- Zone Conditioning Equipment List Name
  {f88310b9-c053-495f-af77-8fe169e28983}, !- Zone Air Inlet Port List
  {75dd49ee-9b68-4085-81b6-950390949e93}, !- Zone Air Exhaust Port List
  {8315d3e2-53e6-45b8-b3a5-b5f92b850e0a}, !- Zone Air Node Name
  {91380b76-07ab-42cf-af11-28dae7d613ce}, !- Zone Return Air Port List
  ,                                       !- Primary Daylighting Control Name
  ,                                       !- Fraction of Zone Controlled by Primary Daylighting Control
  ,                                       !- Secondary Daylighting Control Name
  ,                                       !- Fraction of Zone Controlled by Secondary Daylighting Control
  ,                                       !- Illuminance Map Name
  ,                                       !- Group Rendering Name
  {8845b482-6c3e-4e8b-9a70-c3c6d742553d}, !- Thermostat Name
  No;                                     !- Use Ideal Air Loads

OS:Node,
  {746fb723-9b93-4b57-8802-df548387e32b}, !- Handle
  Node 1,                                 !- Name
  {8315d3e2-53e6-45b8-b3a5-b5f92b850e0a}, !- Inlet Port
  ;                                       !- Outlet Port

OS:Connection,
  {8315d3e2-53e6-45b8-b3a5-b5f92b850e0a}, !- Handle
  {34130963-f179-49ed-bfae-d411d049d913}, !- Source Object
  11,                                     !- Outlet Port
  {746fb723-9b93-4b57-8802-df548387e32b}, !- Target Object
  2;                                      !- Inlet Port

OS:PortList,
  {f88310b9-c053-495f-af77-8fe169e28983}, !- Handle
  {34130963-f179-49ed-bfae-d411d049d913}, !- HVAC Component
  {763845b3-3e78-4197-be2e-51ada549535f}; !- Port 1

OS:PortList,
  {75dd49ee-9b68-4085-81b6-950390949e93}, !- Handle
  {34130963-f179-49ed-bfae-d411d049d913}; !- HVAC Component

OS:PortList,
  {91380b76-07ab-42cf-af11-28dae7d613ce}, !- Handle
  {34130963-f179-49ed-bfae-d411d049d913}, !- HVAC Component
  {d6288022-f3bf-4b05-bc5b-824cc89991d2}; !- Port 1

OS:Sizing:Zone,
  {192d61a4-e042-41fd-a053-6bc79e2dee85}, !- Handle
  {34130963-f179-49ed-bfae-d411d049d913}, !- Zone or ZoneList Name
  SupplyAirTemperature,                   !- Zone Cooling Design Supply Air Temperature Input Method
  14,                                     !- Zone Cooling Design Supply Air Temperature {C}
  11.11,                                  !- Zone Cooling Design Supply Air Temperature Difference {deltaC}
  SupplyAirTemperature,                   !- Zone Heating Design Supply Air Temperature Input Method
  40,                                     !- Zone Heating Design Supply Air Temperature {C}
  11.11,                                  !- Zone Heating Design Supply Air Temperature Difference {deltaC}
  0.0085,                                 !- Zone Cooling Design Supply Air Humidity Ratio {kg-H2O/kg-air}
  0.008,                                  !- Zone Heating Design Supply Air Humidity Ratio {kg-H2O/kg-air}
  ,                                       !- Zone Heating Sizing Factor
  ,                                       !- Zone Cooling Sizing Factor
  DesignDay,                              !- Cooling Design Air Flow Method
  ,                                       !- Cooling Design Air Flow Rate {m3/s}
  ,                                       !- Cooling Minimum Air Flow per Zone Floor Area {m3/s-m2}
  ,                                       !- Cooling Minimum Air Flow {m3/s}
  ,                                       !- Cooling Minimum Air Flow Fraction
  DesignDay,                              !- Heating Design Air Flow Method
  ,                                       !- Heating Design Air Flow Rate {m3/s}
  ,                                       !- Heating Maximum Air Flow per Zone Floor Area {m3/s-m2}
  ,                                       !- Heating Maximum Air Flow {m3/s}
  ,                                       !- Heating Maximum Air Flow Fraction
  No,                                     !- Account for Dedicated Outdoor Air System
  NeutralSupplyAir,                       !- Dedicated Outdoor Air System Control Strategy
  autosize,                               !- Dedicated Outdoor Air Low Setpoint Temperature for Design {C}
  autosize,                               !- Dedicated Outdoor Air High Setpoint Temperature for Design {C}
  Sensible Load Only No Latent Load,      !- Zone Load Sizing Method
  HumidityRatioDifference,                !- Zone Latent Cooling Design Supply Air Humidity Ratio Input Method
  ,                                       !- Zone Dehumidification Design Supply Air Humidity Ratio {kgWater/kgDryAir}
  0.005,                                  !- Zone Cooling Design Supply Air Humidity Ratio Difference {kgWater/kgDryAir}
  HumidityRatioDifference,                !- Zone Latent Heating Design Supply Air Humidity Ratio Input Method
  ,                                       !- Zone Humidification Design Supply Air Humidity Ratio {kgWater/kgDryAir}
  0.005,                                  !- Zone Humidification Design Supply Air Humidity Ratio Difference {kgWater/kgDryAir}
  ,                                       !- Zone Humidistat Dehumidification Set Point Schedule Name
  ,                                       !- Zone Humidistat Humidification Set Point Schedule Name
  ,                                       !- Design Zone Air Distribution Effectiveness in Cooling Mode
  ,                                       !- Design Zone Air Distribution Effectiveness in Heating Mode
  ,                                       !- Design Zone Secondary Recirculation Fraction {dimensionless}
  ,                                       !- Design Minimum Zone Ventilation Efficiency {dimensionless}
  Coincident;                             !- Sizing Option

OS:ZoneHVAC:EquipmentList,
  {8da3530d-ebd1-400d-a0f9-56eade280e7b}, !- Handle
  Zone HVAC Equipment List 1,             !- Name
  {34130963-f179-49ed-bfae-d411d049d913}, !- Thermal Zone
  ,                                       !- Load Distribution Scheme
  {13bd4830-e043-4156-b27f-854aef5dafe7}, !- Zone Equipment 1
  1,                                      !- Zone Equipment Cooling Sequence 1
  1,                                      !- Zone Equipment Heating or No-Load Sequence 1
  {10db8c19-4500-4a8d-ac29-7446d5c02752}, !- Zone Equipment Sequential Cooling Fraction Schedule Name 1
  {95f7ff99-d226-4932-b5f7-862069549ad2}; !- Zone Equipment Sequential Heating Fraction Schedule Name 1

OS:AdditionalProperties,
  {994e9439-09c7-4b1b-bad6-2afecb6544e7}, !- Handle
  {34130963-f179-49ed-bfae-d411d049d913}, !- Object Name
  ObjectType,                             !- Feature Name 1
  String,                                 !- Feature Data Type 1
  conditioned space;                      !- Feature Value 1

OS:Space,
  {1b275d65-9183-45ea-b1d6-c1b0a687b36f}, !- Handle
  conditioned space 1,                    !- Name
  ,                                       !- Space Type Name
  ,                                       !- Default Construction Set Name
  ,                                       !- Default Schedule Set Name
  ,                                       !- Direction of Relative North {deg}
  ,                                       !- X Origin {m}
  ,                                       !- Y Origin {m}
  ,                                       !- Z Origin {m}
  ,                                       !- Building Story Name
  {34130963-f179-49ed-bfae-d411d049d913}, !- Thermal Zone Name
  ,                                       !- Part of Total Floor Area
  ,                                       !- Design Specification Outdoor Air Object Name
  ,                                       !- Building Unit Name
  346.03186535424;                        !- Volume {m3}

OS:Schedule:Ruleset,
  {a4adb2aa-0b70-4e71-b8bd-3f00ff980b47}, !- Handle
  heating setpoint,                       !- Name
  {012663f3-eeda-492a-8875-8168743cab82}, !- Schedule Type Limits Name
  {63811177-3421-4ae4-81e0-fe936ba77806}; !- Default Day Schedule Name

OS:Schedule:Day,
  {63811177-3421-4ae4-81e0-fe936ba77806}, !- Handle
  heating setpoint default day,           !- Name
  {012663f3-eeda-492a-8875-8168743cab82}, !- Schedule Type Limits Name
  ,                                       !- Interpolate to Timestep
  24,                                     !- Hour 1
  0,                                      !- Minute 1
  0;                                      !- Value Until Time 1

OS:Schedule:Rule,
  {c1e751ca-28f8-4f83-b9cc-b6b9c27c6e64}, !- Handle
  heating setpoint allday rule,           !- Name
  {a4adb2aa-0b70-4e71-b8bd-3f00ff980b47}, !- Schedule Ruleset Name
  0,                                      !- Rule Order
  {1f852099-c422-4370-a14d-0677ae7800c5}, !- Day Schedule Name
  Yes,                                    !- Apply Sunday
  Yes,                                    !- Apply Monday
  Yes,                                    !- Apply Tuesday
  Yes,                                    !- Apply Wednesday
  Yes,                                    !- Apply Thursday
  Yes,                                    !- Apply Friday
  Yes,                                    !- Apply Saturday
  DateRange,                              !- Date Specification Type
  1,                                      !- Start Month
  1,                                      !- Start Day
  12,                                     !- End Month
  31;                                     !- End Day

OS:Schedule:Day,
  {1f852099-c422-4370-a14d-0677ae7800c5}, !- Handle
  heating setpoint day,                   !- Name
  {012663f3-eeda-492a-8875-8168743cab82}, !- Schedule Type Limits Name
  ,                                       !- Interpolate to Timestep
  24,                                     !- Hour 1
  0,                                      !- Minute 1
  20;                                     !- Value Until Time 1

OS:Schedule:Ruleset,
  {0d161b00-7495-4bab-929d-7387caa01291}, !- Handle
  cooling setpoint,                       !- Name
  {012663f3-eeda-492a-8875-8168743cab82}, !- Schedule Type Limits Name
  {3c9e522b-df44-4d1f-b56e-988ec1a203e9}; !- Default Day Schedule Name

OS:Schedule:Day,
  {3c9e522b-df44-4d1f-b56e-988ec1a203e9}, !- Handle
  cooling setpoint default day,           !- Name
  {012663f3-eeda-492a-8875-8168743cab82}, !- Schedule Type Limits Name
  ,                                       !- Interpolate to Timestep
  24,                                     !- Hour 1
  0,                                      !- Minute 1
  0;                                      !- Value Until Time 1

OS:Schedule:Rule,
  {44b6d0fc-6a91-4326-8863-fa1bc77ed07a}, !- Handle
  cooling setpoint allday rule,           !- Name
  {0d161b00-7495-4bab-929d-7387caa01291}, !- Schedule Ruleset Name
  0,                                      !- Rule Order
  {7ac8779f-71bb-45bd-a5b9-a5c1db390938}, !- Day Schedule Name
  Yes,                                    !- Apply Sunday
  Yes,                                    !- Apply Monday
  Yes,                                    !- Apply Tuesday
  Yes,                                    !- Apply Wednesday
  Yes,                                    !- Apply Thursday
  Yes,                                    !- Apply Friday
  Yes,                                    !- Apply Saturday
  DateRange,                              !- Date Specification Type
  1,                                      !- Start Month
  1,                                      !- Start Day
  12,                                     !- End Month
  31;                                     !- End Day

OS:Schedule:Day,
  {7ac8779f-71bb-45bd-a5b9-a5c1db390938}, !- Handle
  cooling setpoint day,                   !- Name
  {012663f3-eeda-492a-8875-8168743cab82}, !- Schedule Type Limits Name
  ,                                       !- Interpolate to Timestep
  24,                                     !- Hour 1
  0,                                      !- Minute 1
  25.5555555555556;                       !- Value Until Time 1

OS:ThermostatSetpoint:DualSetpoint,
  {8845b482-6c3e-4e8b-9a70-c3c6d742553d}, !- Handle
  conditioned space temperature setpoint, !- Name
  {a4adb2aa-0b70-4e71-b8bd-3f00ff980b47}, !- Heating Setpoint Temperature Schedule Name
  {0d161b00-7495-4bab-929d-7387caa01291}, !- Cooling Setpoint Temperature Schedule Name
  0;                                      !- Temperature Difference Between Cutout And Setpoint {deltaC}

OS:ScheduleTypeLimits,
  {012663f3-eeda-492a-8875-8168743cab82}, !- Handle
  Temperature,                            !- Name
  ,                                       !- Lower Limit Value
  ,                                       !- Upper Limit Value
  Continuous,                             !- Numeric Type
  Temperature;                            !- Unit Type

OS:Surface,
  {b48120a6-388b-4c37-99a4-f5e5b413deec}, !- Handle
  Roof1,                                  !- Name
  RoofCeiling,                            !- Surface Type
  {790d93fe-9135-414e-a010-481bd5e8a3bc}, !- Construction Name
  {1b275d65-9183-45ea-b1d6-c1b0a687b36f}, !- Space Name
  Outdoors,                               !- Outside Boundary Condition
  ,                                       !- Outside Boundary Condition Object
  SunExposed,                             !- Sun Exposure
  WindExposed,                            !- Wind Exposure
  ,                                       !- View Factor to Ground
  ,                                       !- Number of Vertices
  -5.95628646053898, 5.95628646053898, 2.4384, !- X,Y,Z Vertex 1 {m}
  -5.95628646053898, -5.95628646053898, 2.4384, !- X,Y,Z Vertex 2 {m}
  5.95628646053898, -5.95628646053898, 2.4384, !- X,Y,Z Vertex 3 {m}
  5.95628646053898, 5.95628646053898, 2.4384; !- X,Y,Z Vertex 4 {m}

OS:AdditionalProperties,
  {8142f8b0-7a54-43d6-900f-73bc5f3a796d}, !- Handle
  {b48120a6-388b-4c37-99a4-f5e5b413deec}, !- Object Name
  Length,                                 !- Feature Name 1
  Double,                                 !- Feature Data Type 1
  39.083244491725608,                     !- Feature Value 1
  Width,                                  !- Feature Name 2
  Double,                                 !- Feature Data Type 2
  39.083244491725608,                     !- Feature Value 2
  Azimuth,                                !- Feature Name 3
  Integer,                                !- Feature Data Type 3
  0,                                      !- Feature Value 3
  Tilt,                                   !- Feature Name 4
  Double,                                 !- Feature Data Type 4
  0,                                      !- Feature Value 4
  SurfaceType,                            !- Feature Name 5
  String,                                 !- Feature Data Type 5
  Roof;                                   !- Feature Value 5

OS:Material,
  {e5e3a7df-1d5c-4e58-87b1-7a7f8fde353c}, !- Handle
  asphalt or fiberglass shingles,         !- Name
  Rough,                                  !- Roughness
  0.00635,                                !- Thickness {m}
  0.162714,                               !- Conductivity {W/m-K}
  1121.4,                                 !- Density {kg/m3}
  1465.45,                                !- Specific Heat {J/kg-K}
  0.9,                                    !- Thermal Absorptance
  0.85,                                   !- Solar Absorptance
  0.85;                                   !- Visible Absorptance

OS:Material,
  {28ce972a-9295-4b69-bad3-f299e095a79b}, !- Handle
  roof stud and cavity,                   !- Name
  Rough,                                  !- Roughness
  0.0889,                                 !- Thickness {m}
  0.491900632004487,                      !- Conductivity {W/m-K}
  50.32683,                               !- Density {kg/m3}
  1063.80987585548,                       !- Specific Heat {J/kg-K}
  0.9,                                    !- Thermal Absorptance
  0.7,                                    !- Solar Absorptance
  0.7;                                    !- Visible Absorptance

OS:Material,
  {ae9bac81-bc8e-4f77-ab93-a6cfd6c6d499}, !- Handle
  gypsum board,                           !- Name
  Rough,                                  !- Roughness
  0.00254,                                !- Thickness {m}
  0.1602906,                              !- Conductivity {W/m-K}
  801,                                    !- Density {kg/m3}
  837.4,                                  !- Specific Heat {J/kg-K}
  0.9,                                    !- Thermal Absorptance
  0.6,                                    !- Solar Absorptance
  0.6;                                    !- Visible Absorptance

OS:Construction,
  {790d93fe-9135-414e-a010-481bd5e8a3bc}, !- Handle
  Roof1 construction,                     !- Name
  ,                                       !- Surface Rendering Name
  {e5e3a7df-1d5c-4e58-87b1-7a7f8fde353c}, !- Layer 1
  {28ce972a-9295-4b69-bad3-f299e095a79b}, !- Layer 2
  {ae9bac81-bc8e-4f77-ab93-a6cfd6c6d499}; !- Layer 3

OS:Surface,
  {cab398fa-4a45-4e09-8795-78397f831c6e}, !- Handle
  Wall1,                                  !- Name
  Wall,                                   !- Surface Type
  {8d6b0723-4be4-4ee0-bfed-00a2a1229f80}, !- Construction Name
  {1b275d65-9183-45ea-b1d6-c1b0a687b36f}, !- Space Name
  Outdoors,                               !- Outside Boundary Condition
  ,                                       !- Outside Boundary Condition Object
  SunExposed,                             !- Sun Exposure
  WindExposed,                            !- Wind Exposure
  ,                                       !- View Factor to Ground
  ,                                       !- Number of Vertices
  -29.479875, 30.4089054, 0,              !- X,Y,Z Vertex 1 {m}
  -29.479875, 30.4089054, 4.8768,         !- X,Y,Z Vertex 2 {m}
  -21.055965, 30.4089054, 4.8768,         !- X,Y,Z Vertex 3 {m}
  -21.055965, 30.4089054, 0;              !- X,Y,Z Vertex 4 {m}

OS:AdditionalProperties,
  {3d92c978-c007-4528-832f-e16f439e63f3}, !- Handle
  {cab398fa-4a45-4e09-8795-78397f831c6e}, !- Object Name
  Length,                                 !- Feature Name 1
  Double,                                 !- Feature Data Type 1
  27.637499999999999,                     !- Feature Value 1
  Azimuth,                                !- Feature Name 2
  Integer,                                !- Feature Data Type 2
  0,                                      !- Feature Value 2
  Tilt,                                   !- Feature Name 3
  Double,                                 !- Feature Data Type 3
  90,                                     !- Feature Value 3
  SurfaceType,                            !- Feature Name 4
  String,                                 !- Feature Data Type 4
  Wall;                                   !- Feature Value 4

OS:Material,
  {2b37a9e9-75a7-4a56-bb05-bb2eac8ba45f}, !- Handle
  wood siding,                            !- Name
  Rough,                                  !- Roughness
  0.0254,                                 !- Thickness {m}
  0.1024175,                              !- Conductivity {W/m-K}
  544.68,                                 !- Density {kg/m3}
  1172.36,                                !- Specific Heat {J/kg-K}
  0.9,                                    !- Thermal Absorptance
  0.7,                                    !- Solar Absorptance
  0.7;                                    !- Visible Absorptance

OS:Material,
  {f13e8aa1-f725-430f-9b61-cde3b8763047}, !- Handle
  osb sheathing 0.5 in.,                  !- Name
  Rough,                                  !- Roughness
  0.0127,                                 !- Thickness {m}
  0.1154577,                              !- Conductivity {W/m-K}
  512.64,                                 !- Density {kg/m3}
  1214.23,                                !- Specific Heat {J/kg-K}
  0.9,                                    !- Thermal Absorptance
  0.7,                                    !- Solar Absorptance
  0.7;                                    !- Visible Absorptance

OS:Material,
  {1e30525a-66c1-440d-80e6-3faf47ec763b}, !- Handle
  wall stud and cavity,                   !- Name
  Rough,                                  !- Roughness
  0.1397,                                 !- Thickness {m}
  0.0929021674204099,                     !- Conductivity {W/m-K}
  139.0536,                               !- Density {kg/m3}
  1170.23755760369,                       !- Specific Heat {J/kg-K}
  0.9,                                    !- Thermal Absorptance
  0.7,                                    !- Solar Absorptance
  0.7;                                    !- Visible Absorptance

OS:Material,
  {e83bbe37-f536-473b-9708-68f39bbe2c9d}, !- Handle
  gypsum board 1,                         !- Name
  Rough,                                  !- Roughness
  0.0127,                                 !- Thickness {m}
  0.1602906,                              !- Conductivity {W/m-K}
  801,                                    !- Density {kg/m3}
  837.4,                                  !- Specific Heat {J/kg-K}
  0.9,                                    !- Thermal Absorptance
  0.6,                                    !- Solar Absorptance
  0.6;                                    !- Visible Absorptance

OS:Construction,
  {8d6b0723-4be4-4ee0-bfed-00a2a1229f80}, !- Handle
  Wall1 construction,                     !- Name
  ,                                       !- Surface Rendering Name
  {2b37a9e9-75a7-4a56-bb05-bb2eac8ba45f}, !- Layer 1
  {f13e8aa1-f725-430f-9b61-cde3b8763047}, !- Layer 2
  {1e30525a-66c1-440d-80e6-3faf47ec763b}, !- Layer 3
  {e83bbe37-f536-473b-9708-68f39bbe2c9d}; !- Layer 4

OS:Surface,
  {91e8ebc9-d84c-4f5c-a842-a90567b2d577}, !- Handle
  Wall2,                                  !- Name
  Wall,                                   !- Surface Type
  {53841fc3-53ed-4f75-aed6-a8c7b3f126dd}, !- Construction Name
  {1b275d65-9183-45ea-b1d6-c1b0a687b36f}, !- Space Name
  Outdoors,                               !- Outside Boundary Condition
  ,                                       !- Outside Boundary Condition Object
  SunExposed,                             !- Sun Exposure
  WindExposed,                            !- Wind Exposure
  ,                                       !- View Factor to Ground
  ,                                       !- Number of Vertices
  30.4089054, -26.1969504, 0,             !- X,Y,Z Vertex 1 {m}
  30.4089054, -26.1969504, 4.8768,        !- X,Y,Z Vertex 2 {m}
  30.4089054, -30.4089054, 4.8768,        !- X,Y,Z Vertex 3 {m}
  30.4089054, -30.4089054, 0;             !- X,Y,Z Vertex 4 {m}

OS:AdditionalProperties,
  {3ba87422-8f4b-4368-8956-1d3097c88181}, !- Handle
  {91e8ebc9-d84c-4f5c-a842-a90567b2d577}, !- Object Name
  Length,                                 !- Feature Name 1
  Double,                                 !- Feature Data Type 1
  13.81875,                               !- Feature Value 1
  Azimuth,                                !- Feature Name 2