
OS:Version,
  {e6d8793f-6111-4ed7-a02f-279bd8d10ff3}, !- Handle
  3.9.0;                                  !- Version Identifier

OS:SimulationControl,
  {87f46336-1aff-496b-9f88-6fb10b234d96}, !- Handle
  ,                                       !- Do Zone Sizing Calculation
  ,                                       !- Do System Sizing Calculation
  ,                                       !- Do Plant Sizing Calculation
  No;                                     !- Run Simulation for Sizing Periods

OS:Timestep,
  {53c56c48-e362-429f-8f94-1cdd69de19ae}, !- Handle
  1;                                      !- Number of Timesteps per Hour

OS:ShadowCalculation,
  {b1b924c2-be29-4af4-816c-dd75cda5cf34}, !- Handle
  PolygonClipping,                        !- Shading Calculation Method
  ,                                       !- Shading Calculation Update Frequency Method
  20,                                     !- Shading Calculation Update Frequency
  200,                                    !- Maximum Figures in Shadow Overlap Calculations
  ,                                       !- Polygon Clipping Algorithm
  512,                                    !- Pixel Counting Resolution
  ,                                       !- Sky Diffuse Modeling Algorithm
  No,                                     !- Output External Shading Calculation Results
  No,                                     !- Disable Self-Shading Within Shading Zone Groups
  No;                                     !- Disable Self-Shading From Shading Zone Groups to Other Zones

OS:SurfaceConvectionAlgorithm:Outside,
  {c8286511-77c3-4c61-bd47-900b0dac3836}, !- Handle
  DOE-2;                                  !- Algorithm

OS:SurfaceConvectionAlgorithm:Inside,
  {1025f735-2860-4369-ae2e-48932c32a8ec}, !- Handle
  TARP;                                   !- Algorithm

OS:ZoneCapacitanceMultiplier:ResearchSpecial,
  {166522d2-c66e-4aa9-b595-00a2bb827b24}, !- Handle
  7,                                      !- Temperature Capacity Multiplier
  15,                                     !- Humidity Capacity Multiplier
  ;                                       !- Carbon Dioxide Capacity Multiplier

OS:ConvergenceLimits,
  {760eee4d-f6b7-456d-baca-8bb21d613694}, !- Handle
  0;                                      !- Minimum System Timestep {minutes}

OS:RunPeriod,
  {70423e02-4e34-4e52-96cb-23c0103b2c60}, !- Handle
  Run Period 1,                           !- Name
  1,                                      !- Begin Month
  1,                                      !- Begin Day of Month
  12,                                     !- End Month
  31,                                     !- End Day of Month
  ,                                       !- Use Weather File Holidays and Special Days
  ,                                       !- Use Weather File Daylight Saving Period
  ,                                       !- Apply Weekend Holiday Rule
  ,                                       !- Use Weather File Rain Indicators
  ,                                       !- Use Weather File Snow Indicators
  ;                                       !- Number of Times Runperiod to be Repeated

OS:PerformancePrecisionTradeoffs,
  {46c6a5d7-d663-42c7-89f5-2d4e349652fd}, !- Handle
  ,                                       !- Use Coil Direct Solutions
  CarrollMRT;                             !- Zone Radiant Exchange Algorithm

OS:WeatherFile,
  {a7f363dd-0f07-4053-8044-ed44eb80856a}, !- Handle
  Buffalo Niagara Intl Ap,                !- City
  NY,                                     !- State Province Region
  USA,                                    !- Country
  TMY3,                                   !- Data Source
  725280,                                 !- WMO Number
  42.93,                                  !- Latitude {deg}
  -78.73,                                 !- Longitude {deg}
  -5,                                     !- Time Zone {hr}
  215,                                    !- Elevation {m}
  /Users/nmoore/github/urbanopt-example-geojson-project/example_project/weather/USA_NY_Buffalo-Greater.Buffalo.Intl.AP.725280_TMY3.epw, !- Url
  6B50E0FF,                               !- Checksum
  ,                                       !- Start Date Actual Year
  Sunday;                                 !- Start Day of Week

OS:YearDescription,
  {449ca5e4-aed4-45b1-b244-476f764ffff6}, !- Handle
  2007,                                   !- Calendar Year
  ,                                       !- Day of Week for Start Day
  ;                                       !- Is Leap Year

OS:Site,
  {84de1a00-92d6-46d3-8fed-dcb96cec75ec}, !- Handle
  Buffalo Niagara Intl Ap_NY,             !- Name
  42.93,                                  !- Latitude {deg}
  -78.73,                                 !- Longitude {deg}
  -5,                                     !- Time Zone {hr}
  215,                                    !- Elevation {m}
  Suburbs,                                !- Terrain
  Yes;                                    !- Keep Site Location Information

OS:RunPeriodControl:DaylightSavingTime,
  {75cb0f96-4049-4193-9351-45bae1ddbc3c}, !- Handle
  Mar 12,                                 !- Start Date
  Nov 5;                                  !- End Date

OS:Site:GroundTemperature:Shallow,
  {d885e6b7-f306-41c1-92e8-71f698e2efd9}, !- Handle
  4.30207395723828,                       !- January Surface Ground Temperature {C}
  2.29327249652502,                       !- February Surface Ground Temperature {C}
  2.13240047156047,                       !- March Surface Ground Temperature {C}
  3.08567940719286,                       !- April Surface Ground Temperature {C}
  6.91256312497526,                       !- May Surface Ground Temperature {C}
  10.7216195949507,                       !- June Surface Ground Temperature {C}
  14.0238679822574,                       !- July Surface Ground Temperature {C}
  16.1157611184724,                       !- August Surface Ground Temperature {C}
  16.2934789303462,                       !- September Surface Ground Temperature {C}
  14.5920754632847,                       !- October Surface Ground Temperature {C}
  11.374036348653,                        !- November Surface Ground Temperature {C}
  7.68182621661674;                       !- December Surface Ground Temperature {C}

OS:ThermalZone,
  {ede471c8-224a-45d7-80c2-efa5d87f3cc7}, !- Handle
  conditioned space,                      !- Name
  1,                                      !- Multiplier
  ,                                       !- Ceiling Height {m}
  692.06373070848,                        !- Volume {m3}
  ,                                       !- Floor Area {m2}
  ,                                       !- Zone Inside Convection Algorithm
  ,                                       !- Zone Outside Convection Algorithm
  ,                                       !- Zone Conditioning Equipment List Name
  {9f1a388a-f83f-4020-b000-1715d2b4c789}, !- Zone Air Inlet Port List
  {f3918a70-4605-4d3c-b455-a70fdd252b20}, !- Zone Air Exhaust Port List
  {58471ede-7c70-4482-a354-3784db385bc8}, !- Zone Air Node Name
  {44407edd-85ce-4593-89d6-f69fd8a6ed2b}, !- Zone Return Air Port List
  ,                                       !- Primary Daylighting Control Name
  ,                                       !- Fraction of Zone Controlled by Primary Daylighting Control
  ,                                       !- Secondary Daylighting Control Name
  ,                                       !- Fraction of Zone Controlled by Secondary Daylighting Control
  ,                                       !- Illuminance Map Name
  ,                                       !- Group Rendering Name
  {e73547a2-49b5-4f11-8e06-4faee3168788}, !- Thermostat Name
  No;                                     !- Use Ideal Air Loads

OS:Node,
  {6ee0650f-3635-4b73-b444-0be528a4ce02}, !- Handle
  Node 1,                                 !- Name
  {58471ede-7c70-4482-a354-3784db385bc8}, !- Inlet Port
  ;                                       !- Outlet Port

OS:Connection,
  {58471ede-7c70-4482-a354-3784db385bc8}, !- Handle
  {ede471c8-224a-45d7-80c2-efa5d87f3cc7}, !- Source Object
  11,                                     !- Outlet Port
  {6ee0650f-3635-4b73-b444-0be528a4ce02}, !- Target Object
  2;                                      !- Inlet Port

OS:PortList,
  {9f1a388a-f83f-4020-b000-1715d2b4c789}, !- Handle
  {ede471c8-224a-45d7-80c2-efa5d87f3cc7}, !- HVAC Component
  {7dfddc94-e227-4f91-832d-834f92a4fc37}; !- Port 1

OS:PortList,
  {f3918a70-4605-4d3c-b455-a70fdd252b20}, !- Handle
  {ede471c8-224a-45d7-80c2-efa5d87f3cc7}; !- HVAC Component

OS:PortList,
  {44407edd-85ce-4593-89d6-f69fd8a6ed2b}, !- Handle
  {ede471c8-224a-45d7-80c2-efa5d87f3cc7}, !- HVAC Component
  {104af684-8648-4eba-b796-bee3c9fe029d}; !- Port 1

OS:Sizing:Zone,
  {5b3cc72b-d68b-4901-98b0-a493b3aa3460}, !- Handle
  {ede471c8-224a-45d7-80c2-efa5d87f3cc7}, !- Zone or ZoneList Name
  SupplyAirTemperature,                   !- Zone Cooling Design Supply Air Temperature Input Method
  14,                                     !- Zone Cooling Design Supply Air Temperature {C}
  11.11,                                  !- Zone Cooling Design Supply Air Temperature Difference {deltaC}
  SupplyAirTemperature,                   !- Zone Heating Design Supply Air Temperature Input Method
  40,                                     !- Zone Heating Design Supply Air Temperature {C}
  11.11,                                  !- Zone Heating Design Supply Air Temperature Difference {deltaC}
  0.0085,                                 !- Zone Cooling Design Supply Air Humidity Ratio {kg-H2O/kg-air}
  0.008,                                  !- Zone Heating Design Supply Air Humidity Ratio {kg-H2O/kg-air}
  ,                                       !- Zone Heating Sizing Factor
  ,                                       !- Zone Cooling Sizing Factor
  DesignDay,                              !- Cooling Design Air Flow Method
  ,                                       !- Cooling Design Air Flow Rate {m3/s}
  ,                                       !- Cooling Minimum Air Flow per Zone Floor Area {m3/s-m2}
  ,                                       !- Cooling Minimum Air Flow {m3/s}
  ,                                       !- Cooling Minimum Air Flow Fraction
  DesignDay,                              !- Heating Design Air Flow Method
  ,                                       !- Heating Design Air Flow Rate {m3/s}
  ,                                       !- Heating Maximum Air Flow per Zone Floor Area {m3/s-m2}
  ,                                       !- Heating Maximum Air Flow {m3/s}
  ,                                       !- Heating Maximum Air Flow Fraction
  No,                                     !- Account for Dedicated Outdoor Air System
  NeutralSupplyAir,                       !- Dedicated Outdoor Air System Control Strategy
  autosize,                               !- Dedicated Outdoor Air Low Setpoint Temperature for Design {C}
  autosize,                               !- Dedicated Outdoor Air High Setpoint Temperature for Design {C}
  Sensible Load Only No Latent Load,      !- Zone Load Sizing Method
  HumidityRatioDifference,                !- Zone Latent Cooling Design Supply Air Humidity Ratio Input Method
  ,                                       !- Zone Dehumidification Design Supply Air Humidity Ratio {kgWater/kgDryAir}
  0.005,                                  !- Zone Cooling Design Supply Air Humidity Ratio Difference {kgWater/kgDryAir}
  HumidityRatioDifference,                !- Zone Latent Heating Design Supply Air Humidity Ratio Input Method
  ,                                       !- Zone Humidification Design Supply Air Humidity Ratio {kgWater/kgDryAir}
  0.005,                                  !- Zone Humidification Design Supply Air Humidity Ratio Difference {kgWater/kgDryAir}
  ,                                       !- Zone Humidistat Dehumidification Set Point Schedule Name
  ,                                       !- Zone Humidistat Humidification Set Point Schedule Name
  ,                                       !- Design Zone Air Distribution Effectiveness in Cooling Mode
  ,                                       !- Design Zone Air Distribution Effectiveness in Heating Mode
  ,                                       !- Design Zone Secondary Recirculation Fraction {dimensionless}
  ,                                       !- Design Minimum Zone Ventilation Efficiency {dimensionless}
  Coincident;                             !- Sizing Option

OS:ZoneHVAC:EquipmentList,
  {6c283318-80ba-493c-8dc3-172fce2899ae}, !- Handle
  Zone HVAC Equipment List 1,             !- Name
  {ede471c8-224a-45d7-80c2-efa5d87f3cc7}, !- Thermal Zone
  ,                                       !- Load Distribution Scheme
  {c9a2f59d-9934-4b68-b7b7-4d8737135984}, !- Zone Equipment 1
  1,                                      !- Zone Equipment Cooling Sequence 1
  1,                                      !- Zone Equipment Heating or No-Load Sequence 1
  {5c7fb99b-37b2-4f26-9dec-615e7841326e}, !- Zone Equipment Sequential Cooling Fraction Schedule Name 1
  {ebea2711-4f33-4ca3-ac27-63e165be554a}; !- Zone Equipment Sequential Heating Fraction Schedule Name 1

OS:AdditionalProperties,
  {a33eac27-4487-4448-bd44-e6b960dcde12}, !- Handle
  {ede471c8-224a-45d7-80c2-efa5d87f3cc7}, !- Object Name
  ObjectType,                             !- Feature Name 1
  String,                                 !- Feature Data Type 1
  conditioned space;                      !- Feature Value 1

OS:Space,
  {a4f17dc8-8438-4ba2-983a-765bacb858f3}, !- Handle
  conditioned space 1,                    !- Name
  ,                                       !- Space Type Name
  ,                                       !- Default Construction Set Name
  ,                                       !- Default Schedule Set Name
  ,                                       !- Direction of Relative North {deg}
  ,                                       !- X Origin {m}
  ,                                       !- Y Origin {m}
  ,                                       !- Z Origin {m}
  ,                                       !- Building Story Name
  {ede471c8-224a-45d7-80c2-efa5d87f3cc7}, !- Thermal Zone Name
  ,                                       !- Part of Total Floor Area
  ,                                       !- Design Specification Outdoor Air Object Name
  ,                                       !- Building Unit Name
  692.06373070848;                        !- Volume {m3}

OS:Schedule:Ruleset,
  {dea031a4-dcc6-4232-b786-752eb89e99dd}, !- Handle
  heating setpoint,                       !- Name
  {40fc7d18-7f46-4fe8-9f35-ad85be4c4d94}, !- Schedule Type Limits Name
  {9b67e43c-1b64-4793-8771-cd46b2bf15de}; !- Default Day Schedule Name

OS:Schedule:Day,
  {9b67e43c-1b64-4793-8771-cd46b2bf15de}, !- Handle
  heating setpoint default day,           !- Name
  {40fc7d18-7f46-4fe8-9f35-ad85be4c4d94}, !- Schedule Type Limits Name
  ,                                       !- Interpolate to Timestep
  24,                                     !- Hour 1
  0,                                      !- Minute 1
  0;                                      !- Value Until Time 1

OS:Schedule:Rule,
  {0f56f2f7-ff01-4a9a-9c1c-f8e32a8e9397}, !- Handle
  heating setpoint allday rule,           !- Name
  {dea031a4-dcc6-4232-b786-752eb89e99dd}, !- Schedule Ruleset Name
  0,                                      !- Rule Order
  {cd79e243-ce4c-40b4-9533-014173c59310}, !- Day Schedule Name
  Yes,                                    !- Apply Sunday
  Yes,                                    !- Apply Monday
  Yes,                                    !- Apply Tuesday
  Yes,                                    !- Apply Wednesday
  Yes,                                    !- Apply Thursday
  Yes,                                    !- Apply Friday
  Yes,                                    !- Apply Saturday
  DateRange,                              !- Date Specification Type
  1,                                      !- Start Month
  1,                                      !- Start Day
  12,                                     !- End Month
  31;                                     !- End Day

OS:Schedule:Day,
  {cd79e243-ce4c-40b4-9533-014173c59310}, !- Handle
  heating setpoint day,                   !- Name
  {40fc7d18-7f46-4fe8-9f35-ad85be4c4d94}, !- Schedule Type Limits Name
  ,                                       !- Interpolate to Timestep
  24,                                     !- Hour 1
  0,                                      !- Minute 1
  20;                                     !- Value Until Time 1

OS:Schedule:Ruleset,
  {c4088b21-6b11-4c6a-a28a-52fd7aaf44c6}, !- Handle
  cooling setpoint,                       !- Name
  {40fc7d18-7f46-4fe8-9f35-ad85be4c4d94}, !- Schedule Type Limits Name
  {ae4122f0-b1b8-4d3b-bd7a-ff3c7171031d}; !- Default Day Schedule Name

OS:Schedule:Day,
  {ae4122f0-b1b8-4d3b-bd7a-ff3c7171031d}, !- Handle
  cooling setpoint default day,           !- Name
  {40fc7d18-7f46-4fe8-9f35-ad85be4c4d94}, !- Schedule Type Limits Name
  ,                                       !- Interpolate to Timestep
  24,                                     !- Hour 1
  0,                                      !- Minute 1
  0;                                      !- Value Until Time 1

OS:Schedule:Rule,
  {d7fae926-62ea-4138-a382-7da472e23d5a}, !- Handle
  cooling setpoint allday rule,           !- Name
  {c4088b21-6b11-4c6a-a28a-52fd7aaf44c6}, !- Schedule Ruleset Name
  0,                                      !- Rule Order
  {3c92cf6a-3b84-4f6f-b6ae-3dec548b510f}, !- Day Schedule Name
  Yes,                                    !- Apply Sunday
  Yes,                                    !- Apply Monday
  Yes,                                    !- Apply Tuesday
  Yes,                                    !- Apply Wednesday
  Yes,                                    !- Apply Thursday
  Yes,                                    !- Apply Friday
  Yes,                                    !- Apply Saturday
  DateRange,                              !- Date Specification Type
  1,                                      !- Start Month
  1,                                      !- Start Day
  12,                                     !- End Month
  31;                                     !- End Day

OS:Schedule:Day,
  {3c92cf6a-3b84-4f6f-b6ae-3dec548b510f}, !- Handle
  cooling setpoint day,                   !- Name
  {40fc7d18-7f46-4fe8-9f35-ad85be4c4d94}, !- Schedule Type Limits Name
  ,                                       !- Interpolate to Timestep
  24,                                     !- Hour 1
  0,                                      !- Minute 1
  25.5555555555556;                       !- Value Until Time 1

OS:ThermostatSetpoint:DualSetpoint,
  {e73547a2-49b5-4f11-8e06-4faee3168788}, !- Handle
  conditioned space temperature setpoint, !- Name
  {dea031a4-dcc6-4232-b786-752eb89e99dd}, !- Heating Setpoint Temperature Schedule Name
  {c4088b21-6b11-4c6a-a28a-52fd7aaf44c6}, !- Cooling Setpoint Temperature Schedule Name
  0;                                      !- Temperature Difference Between Cutout And Setpoint {deltaC}

OS:ScheduleTypeLimits,
  {40fc7d18-7f46-4fe8-9f35-ad85be4c4d94}, !- Handle
  Temperature,                            !- Name
  ,                                       !- Lower Limit Value
  ,                                       !- Upper Limit Value
  Continuous,                             !- Numeric Type
  Temperature;                            !- Unit Type

OS:Surface,
  {d2c9688b-0826-4dc0-accf-c70cf2c6f921}, !- Handle
  Roof1,                                  !- Name
  RoofCeiling,                            !- Surface Type
  {686c9ac6-2002-412f-b414-dd13d80dc0dd}, !- Construction Name
  {10861e83-35f9-4e04-accc-e4d56283a576}, !- Space Name
  Outdoors,                               !- Outside Boundary Condition
  ,                                       !- Outside Boundary Condition Object
  SunExposed,                             !- Sun Exposure
  WindExposed,                            !- Wind Exposure
  ,                                       !- View Factor to Ground
  ,                                       !- Number of Vertices
  -26.9347048849634, 58.0557891618865, 2.4384, !- X,Y,Z Vertex 1 {m}
  -26.9347048849634, 46.7895631136661, 8.0715130241102, !- X,Y,Z Vertex 2 {m}
  -14.3386812381136, 46.7895631136661, 8.0715130241102, !- X,Y,Z Vertex 3 {m}
  -14.3386812381136, 58.0557891618865, 2.4384; !- X,Y,Z Vertex 4 {m}

OS:AdditionalProperties,
  {a56c6084-591c-428e-bb78-002fe12ecc16}, !- Handle
  {d2c9688b-0826-4dc0-accf-c70cf2c6f921}, !- Object Name
  Length,                                 !- Feature Name 1
  Double,                                 !- Feature Data Type 1
  41.325536899113608,                     !- Feature Value 1
  Width,                                  !- Feature Name 2
  Double,                                 !- Feature Data Type 2
  41.325536899113601,                     !- Feature Value 2
  Azimuth,                                !- Feature Name 3
  Integer,                                !- Feature Data Type 3
  0,                                      !- Feature Value 3
  Tilt,                                   !- Feature Name 4
  Double,                                 !- Feature Data Type 4
  0.5,                                    !- Feature Value 4
  SurfaceType,                            !- Feature Name 5
  String,                                 !- Feature Data Type 5
  Roof;                                   !- Feature Value 5

OS:ThermalZone,
  {6fbc7898-e0a0-429e-bfe3-b559e061de55}, !- Handle
  attic - vented,                         !- Name
  1,                                      !- Multiplier
  ,                                       !- Ceiling Height {m}
  356.389957095237,                       !- Volume {m3}
  ,                                       !- Floor Area {m2}
  ,                                       !- Zone Inside Convection Algorithm
  ,                                       !- Zone Outside Convection Algorithm
  ,                                       !- Zone Conditioning Equipment List Name
  {197aecdd-cacb-4778-8f92-2e4ac1e484ce}, !- Zone Air Inlet Port List
  {d922d3fe-c10c-4b73-8a08-cebaa5985b80}, !- Zone Air Exhaust Port List
  {a767ac6d-500a-4926-ac97-6464fca9db0f}, !- Zone Air Node Name
  {8628b14f-a520-4e14-b220-b587eea31725}, !- Zone Return Air Port List
  ,                                       !- Primary Daylighting Control Name
  ,                                       !- Fraction of Zone Controlled by Primary Daylighting Control
  ,                                       !- Secondary Daylighting Control Name
  ,                                       !- Fraction of Zone Controlled by Secondary Daylighting Control
  ,                                       !- Illuminance Map Name
  ,                                       !- Group Rendering Name
  ,                                       !- Thermostat Name
  No;                                     !- Use Ideal Air Loads

OS:Node,
  {125a62f2-bf97-4dfe-8023-bfb87e837909}, !- Handle
  Node 2,                                 !- Name
  {a767ac6d-500a-4926-ac97-6464fca9db0f}, !- Inlet Port
  ;                                       !- Outlet Port

OS:Connection,
  {a767ac6d-500a-4926-ac97-6464fca9db0f}, !- Handle
  {6fbc7898-e0a0-429e-bfe3-b559e061de55}, !- Source Object
  11,                                     !- Outlet Port
  {125a62f2-bf97-4dfe-8023-bfb87e837909}, !- Target Object
  2;                                      !- Inlet Port

OS:PortList,
  {197aecdd-cacb-4778-8f92-2e4ac1e484ce}, !- Handle
  {6fbc7898-e0a0-429e-bfe3-b559e061de55}; !- HVAC Component

OS:PortList,
  {d922d3fe-c10c-4b73-8a08-cebaa5985b80}, !- Handle
  {6fbc7898-e0a0-429e-bfe3-b559e061de55}; !- HVAC Component

OS:PortList,
  {8628b14f-a520-4e14-b220-b587eea31725}, !- Handle
  {6fbc7898-e0a0-429e-bfe3-b559e061de55}; !- HVAC Component

OS:Sizing:Zone,
  {dbfe863f-6169-43eb-9e98-4b724398989f}, !- Handle
  {6fbc7898-e0a0-429e-bfe3-b559e061de55}, !- Zone or ZoneList Name
  SupplyAirTemperature,                   !- Zone Cooling Design Supply Air Temperature Input Method
  14,                                     !- Zone Cooling Design Supply Air Temperature {C}
  11.11,                                  !- Zone Cooling Design Supply Air Temperature Difference {deltaC}
  SupplyAirTemperature,                   !- Zone Heating Design Supply Air Temperature Input Method
  40,                                     !- Zone Heating Design Supply Air Temperature {C}
  11.11,                                  !- Zone Heating Design Supply Air Temperature Difference {deltaC}
  0.0085,                                 !- Zone Cooling Design Supply Air Humidity Ratio {kg-H2O/kg-air}
  0.008,                                  !- Zone Heating Design Supply Air Humidity Ratio {kg-H2O/kg-air}
  ,                                       !- Zone Heating Sizing Factor
  ,                                       !- Zone Cooling Sizing Factor
  DesignDay,                              !- Cooling Design Air Flow Method
  ,                                       !- Cooling Design Air Flow Rate {m3/s}
  ,                                       !- Cooling Minimum Air Flow per Zone Floor Area {m3/s-m2}
  ,                                       !- Cooling Minimum Air Flow {m3/s}
  ,                                       !- Cooling Minimum Air Flow Fraction
  DesignDay,                              !- Heating Design Air Flow Method
  ,                                       !- Heating Design Air Flow Rate {m3/s}
  ,                                       !- Heating Maximum Air Flow per Zone Floor Area {m3/s-m2}
  ,                                       !- Heating Maximum Air Flow {m3/s}
  ,                                       !- Heating Maximum Air Flow Fraction
  No,                                     !- Account for Dedicated Outdoor Air System
  NeutralSupplyAir,                       !- Dedicated Outdoor Air System Control Strategy
  autosize,                               !- Dedicated Outdoor Air Low Setpoint Temperature for Design {C}
  autosize,                               !- Dedicated Outdoor Air High Setpoint Temperature for Design {C}
  Sensible Load Only No Latent Load,      !- Zone Load Sizing Method
  HumidityRatioDifference,                !- Zone Latent Cooling Design Supply Air Humidity Ratio Input Method
  ,                                       !- Zone Dehumidification Design Supply Air Humidity Ratio {kgWater/kgDryAir}
  0.005,                                  !- Zone Cooling Design Supply Air Humidity Ratio Difference {kgWater/kgDryAir}
  HumidityRatioDifference,                !- Zone Latent Heating Design Supply Air Humidity Ratio Input Method
  ,                                       !- Zone Humidification Design Supply Air Humidity Ratio {kgWater/kgDryAir}
  0.005,                                  !- Zone Humidification Design Supply Air Humidity Ratio Difference {kgWater/kgDryAir}
  ,                                       !- Zone Humidistat Dehumidification Set Point Schedule Name
  ,                                       !- Zone Humidistat Humidification Set Point Schedule Name
  ,                                       !- Design Zone Air Distribution Effectiveness in Cooling Mode
  ,                                       !- Design Zone Air Distribution Effectiveness in Heating Mode
  ,                                       !- Design Zone Secondary Recirculation Fraction {dimensionless}
  ,                                       !- Design Minimum Zone Ventilation Efficiency {dimensionless}
  Coincident;                             !- Sizing Option

OS:ZoneHVAC:EquipmentList,
  {e474d305-8e28-498e-82ce-de1fb1cf4a8f}, !- Handle
  Zone HVAC Equipment List 2,             !- Name
  {6fbc7898-e0a0-429e-bfe3-b559e061de55}; !- Thermal Zone

OS:AdditionalProperties,
  {6b238326-dad2-4ee8-9b07-5412c97e4a2b}, !- Handle
  {6fbc7898-e0a0-429e-bfe3-b559e061de55}, !- Object Name
  ObjectType,                             !- Feature Name 1
  String,                                 !- Feature Data Type 1
  attic - vented;                         !- Feature Value 1

OS:Space,
  {10861e83-35f9-4e04-accc-e4d56283a576}, !- Handle
  attic - vented 1,                       !- Name
  ,                                       !- Space Type Name
  ,                                       !- Default Construction Set Name
  ,                                       !- Default Schedule Set Name
  ,                                       !- Direction of Relative North {deg}
  ,                                       !- X Origin {m}
  ,                                       !- Y Origin {m}
  ,                                       !- Z Origin {m}
  ,                                       !- Building Story Name
  {6fbc7898-e0a0-429e-bfe3-b559e061de55}, !- Thermal Zone Name
  ,                                       !- Part of Total Floor Area
  ,                                       !- Design Specification Outdoor Air Object Name
  ,                                       !- Building Unit Name
  356.389957095237;                       !- Volume {m3}

OS:Material,
  {748d5741-bd4d-4fb5-8ef7-eafe7a3ff4c9}, !- Handle
  asphalt or fiberglass shingles,         !- Name
  Rough,                                  !- Roughness
  0.00635,                                !- Thickness {m}
  0.162714,                               !- Conductivity {W/m-K}
  1121.4,                                 !- Density {kg/m3}
  1465.45,                                !- Specific Heat {J/kg-K}
  0.9,                                    !- Thermal Absorptance
  0.85,                                   !- Solar Absorptance