
OS:Version,
  {08c6e8b2-632a-4aca-a032-41b539f9af2d}, !- Handle
  3.10.0;                                 !- Version Identifier

OS:SimulationControl,
  {8c93e9f9-0e4e-47cf-86fb-62533db695c1}, !- Handle
  ,                                       !- Do Zone Sizing Calculation
  ,                                       !- Do System Sizing Calculation
  ,                                       !- Do Plant Sizing Calculation
  No;                                     !- Run Simulation for Sizing Periods

OS:Timestep,
  {3a02cf66-eaca-49d2-961f-877ea3df4b60}, !- Handle
  1;                                      !- Number of Timesteps per Hour

OS:ShadowCalculation,
  {435e8b7c-7bc2-40eb-8706-232c260602ed}, !- Handle
  PolygonClipping,                        !- Shading Calculation Method
  ,                                       !- Shading Calculation Update Frequency Method
  20,                                     !- Shading Calculation Update Frequency
  200,                                    !- Maximum Figures in Shadow Overlap Calculations
  ,                                       !- Polygon Clipping Algorithm
  512,                                    !- Pixel Counting Resolution
  ,                                       !- Sky Diffuse Modeling Algorithm
  No,                                     !- Output External Shading Calculation Results
  No,                                     !- Disable Self-Shading Within Shading Zone Groups
  No;                                     !- Disable Self-Shading From Shading Zone Groups to Other Zones

OS:SurfaceConvectionAlgorithm:Outside,
  {371107a6-2f4a-485d-a9e9-ac68062f70e0}, !- Handle
  DOE-2;                                  !- Algorithm

OS:SurfaceConvectionAlgorithm:Inside,
  {739f4f4b-10d4-44c6-83a1-2631b7fea10d}, !- Handle
  TARP;                                   !- Algorithm

OS:ZoneCapacitanceMultiplier:ResearchSpecial,
  {c99f945a-eda2-4a1d-b1b1-17d5b9c7620a}, !- Handle
  7,                                      !- Temperature Capacity Multiplier
  15,                                     !- Humidity Capacity Multiplier
  ;                                       !- Carbon Dioxide Capacity Multiplier

OS:ConvergenceLimits,
  {2592caf1-e226-4e7b-888f-b154070976fa}, !- Handle
  0;                                      !- Minimum System Timestep {minutes}

OS:RunPeriod,
  {a8d8db91-780d-4fda-a43d-7aac5b56dd3e}, !- Handle
  Run Period 1,                           !- Name
  1,                                      !- Begin Month
  1,                                      !- Begin Day of Month
  12,                                     !- End Month
  31,                                     !- End Day of Month
  ,                                       !- Use Weather File Holidays and Special Days
  ,                                       !- Use Weather File Daylight Saving Period
  ,                                       !- Apply Weekend Holiday Rule
  ,                                       !- Use Weather File Rain Indicators
  ,                                       !- Use Weather File Snow Indicators
  ;                                       !- Number of Times Runperiod to be Repeated

OS:PerformancePrecisionTradeoffs,
  {d65bed53-401c-47d7-b372-4d98f2d3f3f8}, !- Handle
  ,                                       !- Use Coil Direct Solutions
  CarrollMRT;                             !- Zone Radiant Exchange Algorithm

OS:WeatherFile,
  {dc3e39eb-82b5-45ad-a963-b405afeff257}, !- Handle
  Buffalo Niagara Intl Ap,                !- City
  NY,                                     !- State Province Region
  USA,                                    !- Country
  TMY3,                                   !- Data Source
  725280,                                 !- WMO Number
  42.93,                                  !- Latitude {deg}
  -78.73,                                 !- Longitude {deg}
  -5,                                     !- Time Zone {hr}
  215,                                    !- Elevation {m}
  /Users/nmoore/github/urbanopt-example-geojson-project/example_project/weather/USA_NY_Buffalo-Greater.Buffalo.Intl.AP.725280_TMY3.epw, !- Url
  6B50E0FF,                               !- Checksum
  ,                                       !- Start Date Actual Year
  Sunday;                                 !- Start Day of Week

OS:YearDescription,
  {9cf728c0-3b0f-4fef-9775-50114a93228a}, !- Handle
  2007,                                   !- Calendar Year
  ,                                       !- Day of Week for Start Day
  ;                                       !- Is Leap Year

OS:Site,
  {f101ac62-a2f1-46b3-924c-8bad06995210}, !- Handle
  Buffalo Niagara Intl Ap_NY,             !- Name
  42.93,                                  !- Latitude {deg}
  -78.73,                                 !- Longitude {deg}
  -5,                                     !- Time Zone {hr}
  215,                                    !- Elevation {m}
  Suburbs,                                !- Terrain
  Yes;                                    !- Keep Site Location Information

OS:RunPeriodControl:DaylightSavingTime,
  {9db657fd-caae-43c2-8fc9-b96acdc506fd}, !- Handle
  Mar 12,                                 !- Start Date
  Nov 5;                                  !- End Date

OS:Site:GroundTemperature:Shallow,
  {e3cd241f-a34c-49c3-9da7-669381df023d}, !- Handle
  4.30207395723828,                       !- January Surface Ground Temperature {C}
  2.29327249652502,                       !- February Surface Ground Temperature {C}
  2.13240047156047,                       !- March Surface Ground Temperature {C}
  3.08567940719286,                       !- April Surface Ground Temperature {C}
  6.91256312497526,                       !- May Surface Ground Temperature {C}
  10.7216195949507,                       !- June Surface Ground Temperature {C}
  14.0238679822574,                       !- July Surface Ground Temperature {C}
  16.1157611184724,                       !- August Surface Ground Temperature {C}
  16.2934789303462,                       !- September Surface Ground Temperature {C}
  14.5920754632847,                       !- October Surface Ground Temperature {C}
  11.374036348653,                        !- November Surface Ground Temperature {C}
  7.68182621661674;                       !- December Surface Ground Temperature {C}

OS:ThermalZone,
  {868459d5-b030-4428-b0ac-824549a400ea}, !- Handle
  conditioned space,                      !- Name
  1,                                      !- Multiplier
  ,                                       !- Ceiling Height {m}
  692.06373070848,                        !- Volume {m3}
  ,                                       !- Floor Area {m2}
  ,                                       !- Zone Inside Convection Algorithm
  ,                                       !- Zone Outside Convection Algorithm
  ,                                       !- Zone Conditioning Equipment List Name
  {50920417-5541-49ab-b608-3b292797cd4b}, !- Zone Air Inlet Port List
  {66140abd-fa7a-4115-83f2-edcddd01e953}, !- Zone Air Exhaust Port List
  {f24a6189-b074-4678-be57-16b5b90c4f0f}, !- Zone Air Node Name
  {4c696d32-d120-472d-813e-aed06d1c4084}, !- Zone Return Air Port List
  ,                                       !- Primary Daylighting Control Name
  ,                                       !- Fraction of Zone Controlled by Primary Daylighting Control
  ,                                       !- Secondary Daylighting Control Name
  ,                                       !- Fraction of Zone Controlled by Secondary Daylighting Control
  ,                                       !- Illuminance Map Name
  ,                                       !- Group Rendering Name
  {48789f75-ea93-436b-b9eb-3b87a53a646f}, !- Thermostat Name
  No;                                     !- Use Ideal Air Loads

OS:Node,
  {167e5c9f-d3fb-4b0b-b7fd-3f621441583e}, !- Handle
  Node 1,                                 !- Name
  {f24a6189-b074-4678-be57-16b5b90c4f0f}, !- Inlet Port
  ;                                       !- Outlet Port

OS:Connection,
  {f24a6189-b074-4678-be57-16b5b90c4f0f}, !- Handle
  {868459d5-b030-4428-b0ac-824549a400ea}, !- Source Object
  11,                                     !- Outlet Port
  {167e5c9f-d3fb-4b0b-b7fd-3f621441583e}, !- Target Object
  2;                                      !- Inlet Port

OS:PortList,
  {50920417-5541-49ab-b608-3b292797cd4b}, !- Handle
  {868459d5-b030-4428-b0ac-824549a400ea}, !- HVAC Component
  {011446d3-53be-4528-a89c-905d16acfe27}; !- Port 1

OS:PortList,
  {66140abd-fa7a-4115-83f2-edcddd01e953}, !- Handle
  {868459d5-b030-4428-b0ac-824549a400ea}; !- HVAC Component

OS:PortList,
  {4c696d32-d120-472d-813e-aed06d1c4084}, !- Handle
  {868459d5-b030-4428-b0ac-824549a400ea}, !- HVAC Component
  {654e9e6e-179c-43dd-ab3a-c9ec8207363a}; !- Port 1

OS:Sizing:Zone,
  {36d97f0f-7418-465b-b2f3-78d7f2b7c13b}, !- Handle
  {868459d5-b030-4428-b0ac-824549a400ea}, !- Zone or ZoneList Name
  SupplyAirTemperature,                   !- Zone Cooling Design Supply Air Temperature Input Method
  14,                                     !- Zone Cooling Design Supply Air Temperature {C}
  11.11,                                  !- Zone Cooling Design Supply Air Temperature Difference {deltaC}
  SupplyAirTemperature,                   !- Zone Heating Design Supply Air Temperature Input Method
  40,                                     !- Zone Heating Design Supply Air Temperature {C}
  11.11,                                  !- Zone Heating Design Supply Air Temperature Difference {deltaC}
  0.0085,                                 !- Zone Cooling Design Supply Air Humidity Ratio {kg-H2O/kg-air}
  0.008,                                  !- Zone Heating Design Supply Air Humidity Ratio {kg-H2O/kg-air}
  ,                                       !- Zone Heating Sizing Factor
  ,                                       !- Zone Cooling Sizing Factor
  DesignDay,                              !- Cooling Design Air Flow Method
  ,                                       !- Cooling Design Air Flow Rate {m3/s}
  ,                                       !- Cooling Minimum Air Flow per Zone Floor Area {m3/s-m2}
  ,                                       !- Cooling Minimum Air Flow {m3/s}
  ,                                       !- Cooling Minimum Air Flow Fraction
  DesignDay,                              !- Heating Design Air Flow Method
  ,                                       !- Heating Design Air Flow Rate {m3/s}
  ,                                       !- Heating Maximum Air Flow per Zone Floor Area {m3/s-m2}
  ,                                       !- Heating Maximum Air Flow {m3/s}
  ,                                       !- Heating Maximum Air Flow Fraction
  No,                                     !- Account for Dedicated Outdoor Air System
  NeutralSupplyAir,                       !- Dedicated Outdoor Air System Control Strategy
  autosize,                               !- Dedicated Outdoor Air Low Setpoint Temperature for Design {C}
  autosize,                               !- Dedicated Outdoor Air High Setpoint Temperature for Design {C}
  Sensible Load Only No Latent Load,      !- Zone Load Sizing Method
  HumidityRatioDifference,                !- Zone Latent Cooling Design Supply Air Humidity Ratio Input Method
  ,                                       !- Zone Dehumidification Design Supply Air Humidity Ratio {kgWater/kgDryAir}
  0.005,                                  !- Zone Cooling Design Supply Air Humidity Ratio Difference {kgWater/kgDryAir}
  HumidityRatioDifference,                !- Zone Latent Heating Design Supply Air Humidity Ratio Input Method
  ,                                       !- Zone Humidification Design Supply Air Humidity Ratio {kgWater/kgDryAir}
  0.005,                                  !- Zone Humidification Design Supply Air Humidity Ratio Difference {kgWater/kgDryAir}
  ,                                       !- Zone Humidistat Dehumidification Set Point Schedule Name
  ,                                       !- Zone Humidistat Humidification Set Point Schedule Name
  ,                                       !- Design Zone Air Distribution Effectiveness in Cooling Mode
  ,                                       !- Design Zone Air Distribution Effectiveness in Heating Mode
  ,                                       !- Design Zone Secondary Recirculation Fraction {dimensionless}
  ,                                       !- Design Minimum Zone Ventilation Efficiency {dimensionless}
  Coincident;                             !- Sizing Option

OS:ZoneHVAC:EquipmentList,
  {8b7a7d3a-ec26-48f8-848e-b9c277709bdd}, !- Handle
  Zone HVAC Equipment List 1,             !- Name
  {868459d5-b030-4428-b0ac-824549a400ea}, !- Thermal Zone
  ,                                       !- Load Distribution Scheme
  {e611a868-c0dd-460c-b6d8-937ca145ee2f}, !- Zone Equipment 1
  1,                                      !- Zone Equipment Cooling Sequence 1
  1,                                      !- Zone Equipment Heating or No-Load Sequence 1
  {46feed18-4d26-46c7-a1b1-d84000ce30c8}, !- Zone Equipment Sequential Cooling Fraction Schedule Name 1
  {9348b863-dd3e-4c9f-a6ec-5eb505c3bc0a}; !- Zone Equipment Sequential Heating Fraction Schedule Name 1

OS:AdditionalProperties,
  {b2aa4de7-12be-4d38-b2ce-8d8f1292c4b1}, !- Handle
  {868459d5-b030-4428-b0ac-824549a400ea}, !- Object Name
  ObjectType,                             !- Feature Name 1
  String,                                 !- Feature Data Type 1
  conditioned space;                      !- Feature Value 1

OS:Space,
  {db388f78-475d-4842-aab3-ca077a229cd9}, !- Handle
  conditioned space 1,                    !- Name
  ,                                       !- Space Type Name
  ,                                       !- Default Construction Set Name
  ,                                       !- Default Schedule Set Name
  ,                                       !- Direction of Relative North {deg}
  ,                                       !- X Origin {m}
  ,                                       !- Y Origin {m}
  ,                                       !- Z Origin {m}
  ,                                       !- Building Story Name
  {868459d5-b030-4428-b0ac-824549a400ea}, !- Thermal Zone Name
  ,                                       !- Part of Total Floor Area
  ,                                       !- Design Specification Outdoor Air Object Name
  ,                                       !- Building Unit Name
  692.06373070848;                        !- Volume {m3}

OS:Schedule:Ruleset,
  {59c181c6-c282-47ee-955a-66b2c25b5310}, !- Handle
  heating setpoint,                       !- Name
  {10ad935b-ab21-4fa4-b515-c162a89dced8}, !- Schedule Type Limits Name
  {1fa8c5f5-4929-4a14-9506-19c9b10a28f1}; !- Default Day Schedule Name

OS:Schedule:Day,
  {1fa8c5f5-4929-4a14-9506-19c9b10a28f1}, !- Handle
  heating setpoint default day,           !- Name
  {10ad935b-ab21-4fa4-b515-c162a89dced8}, !- Schedule Type Limits Name
  ,                                       !- Interpolate to Timestep
  24,                                     !- Hour 1
  0,                                      !- Minute 1
  0;                                      !- Value Until Time 1

OS:Schedule:Rule,
  {5d30ca76-23f7-41ce-bfcc-5c33a6dce4ee}, !- Handle
  heating setpoint allday rule,           !- Name
  {59c181c6-c282-47ee-955a-66b2c25b5310}, !- Schedule Ruleset Name
  0,                                      !- Rule Order
  {8f6c81bd-f991-40ef-aa0b-f7dc9dc07fa3}, !- Day Schedule Name
  Yes,                                    !- Apply Sunday
  Yes,                                    !- Apply Monday
  Yes,                                    !- Apply Tuesday
  Yes,                                    !- Apply Wednesday
  Yes,                                    !- Apply Thursday
  Yes,                                    !- Apply Friday
  Yes,                                    !- Apply Saturday
  DateRange,                              !- Date Specification Type
  1,                                      !- Start Month
  1,                                      !- Start Day
  12,                                     !- End Month
  31;                                     !- End Day

OS:Schedule:Day,
  {8f6c81bd-f991-40ef-aa0b-f7dc9dc07fa3}, !- Handle
  heating setpoint day,                   !- Name
  {10ad935b-ab21-4fa4-b515-c162a89dced8}, !- Schedule Type Limits Name
  ,                                       !- Interpolate to Timestep
  24,                                     !- Hour 1
  0,                                      !- Minute 1
  20;                                     !- Value Until Time 1

OS:Schedule:Ruleset,
  {839984dc-9e17-4f35-822e-f70b546959ab}, !- Handle
  cooling setpoint,                       !- Name
  {10ad935b-ab21-4fa4-b515-c162a89dced8}, !- Schedule Type Limits Name
  {92b9ce05-92ed-4964-a992-6654832caa8b}; !- Default Day Schedule Name

OS:Schedule:Day,
  {92b9ce05-92ed-4964-a992-6654832caa8b}, !- Handle
  cooling setpoint default day,           !- Name
  {10ad935b-ab21-4fa4-b515-c162a89dced8}, !- Schedule Type Limits Name
  ,                                       !- Interpolate to Timestep
  24,                                     !- Hour 1
  0,                                      !- Minute 1
  0;                                      !- Value Until Time 1

OS:Schedule:Rule,
  {bd80ba2e-3209-42a0-8283-be24e5b09417}, !- Handle
  cooling setpoint allday rule,           !- Name
  {839984dc-9e17-4f35-822e-f70b546959ab}, !- Schedule Ruleset Name
  0,                                      !- Rule Order
  {721a30a0-7eae-4d73-a09a-ac1b36be9ab9}, !- Day Schedule Name
  Yes,                                    !- Apply Sunday
  Yes,                                    !- Apply Monday
  Yes,                                    !- Apply Tuesday
  Yes,                                    !- Apply Wednesday
  Yes,                                    !- Apply Thursday
  Yes,                                    !- Apply Friday
  Yes,                                    !- Apply Saturday
  DateRange,                              !- Date Specification Type
  1,                                      !- Start Month
  1,                                      !- Start Day
  12,                                     !- End Month
  31;                                     !- End Day

OS:Schedule:Day,
  {721a30a0-7eae-4d73-a09a-ac1b36be9ab9}, !- Handle
  cooling setpoint day,                   !- Name
  {10ad935b-ab21-4fa4-b515-c162a89dced8}, !- Schedule Type Limits Name
  ,                                       !- Interpolate to Timestep
  24,                                     !- Hour 1
  0,                                      !- Minute 1
  25.5555555555556;                       !- Value Until Time 1

OS:ThermostatSetpoint:DualSetpoint,
  {48789f75-ea93-436b-b9eb-3b87a53a646f}, !- Handle
  conditioned space temperature setpoint, !- Name
  {59c181c6-c282-47ee-955a-66b2c25b5310}, !- Heating Setpoint Temperature Schedule Name
  {839984dc-9e17-4f35-822e-f70b546959ab}, !- Cooling Setpoint Temperature Schedule Name
  0;                                      !- Temperature Difference Between Cutout And Setpoint {deltaC}

OS:ScheduleTypeLimits,
  {10ad935b-ab21-4fa4-b515-c162a89dced8}, !- Handle
  Temperature,                            !- Name
  ,                                       !- Lower Limit Value
  ,                                       !- Upper Limit Value
  Continuous,                             !- Numeric Type
  Temperature;                            !- Unit Type

OS:Surface,
  {d5fbeb1d-ffab-4553-83fe-0f7d9111d109}, !- Handle
  Roof1,                                  !- Name
  RoofCeiling,                            !- Surface Type
  {bffc947b-7fab-4894-ac0d-f59d62fe3a84}, !- Construction Name
  {c18d4ab2-c1f7-41d7-b484-f51b1da29c53}, !- Space Name
  Outdoors,                               !- Outside Boundary Condition
  ,                                       !- Outside Boundary Condition Object
  SunExposed,                             !- Sun Exposure
  WindExposed,                            !- Wind Exposure
  ,                                       !- View Factor to Ground
  ,                                       !- Number of Vertices
  -26.9347048849634, 58.0557891618865, 2.4384, !- X,Y,Z Vertex 1 {m}
  -26.9347048849634, 46.7895631136661, 8.0715130241102, !- X,Y,Z Vertex 2 {m}
  -14.3386812381136, 46.7895631136661, 8.0715130241102, !- X,Y,Z Vertex 3 {m}
  -14.3386812381136, 58.0557891618865, 2.4384; !- X,Y,Z Vertex 4 {m}

OS:AdditionalProperties,
  {b93fa5b9-d950-4c26-9f5a-310ad6dcb8c1}, !- Handle
  {d5fbeb1d-ffab-4553-83fe-0f7d9111d109}, !- Object Name
  Length,                                 !- Feature Name 1
  Double,                                 !- Feature Data Type 1
  41.325536899113608,                     !- Feature Value 1
  Width,                                  !- Feature Name 2
  Double,                                 !- Feature Data Type 2
  41.325536899113601,                     !- Feature Value 2
  Azimuth,                                !- Feature Name 3
  Integer,                                !- Feature Data Type 3
  0,                                      !- Feature Value 3
  Tilt,                                   !- Feature Name 4
  Double,                                 !- Feature Data Type 4
  0.5,                                    !- Feature Value 4
  SurfaceType,                            !- Feature Name 5
  String,                                 !- Feature Data Type 5
  Roof;                                   !- Feature Value 5

OS:ThermalZone,
  {38d8410c-eeee-4fce-89d4-89be68407bf7}, !- Handle
  attic - vented,                         !- Name
  1,                                      !- Multiplier
  ,                                       !- Ceiling Height {m}
  356.390921899745,                       !- Volume {m3}
  ,                                       !- Floor Area {m2}
  ,                                       !- Zone Inside Convection Algorithm
  ,                                       !- Zone Outside Convection Algorithm
  ,                                       !- Zone Conditioning Equipment List Name
  {3c4b9a55-ae1e-499c-a2fd-686d4d297c22}, !- Zone Air Inlet Port List
  {126a15e2-9017-49b9-8755-1acf4a5fa4c7}, !- Zone Air Exhaust Port List
  {bc9edfce-3f64-4a79-8ef6-2b5a1fa4c754}, !- Zone Air Node Name
  {a7fc2f1b-5c6d-49c3-934f-dc6eef089115}, !- Zone Return Air Port List
  ,                                       !- Primary Daylighting Control Name
  ,                                       !- Fraction of Zone Controlled by Primary Daylighting Control
  ,                                       !- Secondary Daylighting Control Name
  ,                                       !- Fraction of Zone Controlled by Secondary Daylighting Control
  ,                                       !- Illuminance Map Name
  ,                                       !- Group Rendering Name
  ,                                       !- Thermostat Name
  No;                                     !- Use Ideal Air Loads

OS:Node,
  {ed5d3364-d7f6-43b9-80a1-eb165fc3a27e}, !- Handle
  Node 2,                                 !- Name
  {bc9edfce-3f64-4a79-8ef6-2b5a1fa4c754}, !- Inlet Port
  ;                                       !- Outlet Port

OS:Connection,
  {bc9edfce-3f64-4a79-8ef6-2b5a1fa4c754}, !- Handle
  {38d8410c-eeee-4fce-89d4-89be68407bf7}, !- Source Object
  11,                                     !- Outlet Port
  {ed5d3364-d7f6-43b9-80a1-eb165fc3a27e}, !- Target Object
  2;                                      !- Inlet Port

OS:PortList,
  {3c4b9a55-ae1e-499c-a2fd-686d4d297c22}, !- Handle
  {38d8410c-eeee-4fce-89d4-89be68407bf7}; !- HVAC Component

OS:PortList,
  {126a15e2-9017-49b9-8755-1acf4a5fa4c7}, !- Handle
  {38d8410c-eeee-4fce-89d4-89be68407bf7}; !- HVAC Component

OS:PortList,
  {a7fc2f1b-5c6d-49c3-934f-dc6eef089115}, !- Handle
  {38d8410c-eeee-4fce-89d4-89be68407bf7}; !- HVAC Component

OS:Sizing:Zone,
  {69fab785-c80a-4413-b412-9ba000df7b7f}, !- Handle
  {38d8410c-eeee-4fce-89d4-89be68407bf7}, !- Zone or ZoneList Name
  SupplyAirTemperature,                   !- Zone Cooling Design Supply Air Temperature Input Method
  14,                                     !- Zone Cooling Design Supply Air Temperature {C}
  11.11,                                  !- Zone Cooling Design Supply Air Temperature Difference {deltaC}
  SupplyAirTemperature,                   !- Zone Heating Design Supply Air Temperature Input Method
  40,                                     !- Zone Heating Design Supply Air Temperature {C}
  11.11,                                  !- Zone Heating Design Supply Air Temperature Difference {deltaC}
  0.0085,                                 !- Zone Cooling Design Supply Air Humidity Ratio {kg-H2O/kg-air}
  0.008,                                  !- Zone Heating Design Supply Air Humidity Ratio {kg-H2O/kg-air}
  ,                                       !- Zone Heating Sizing Factor
  ,                                       !- Zone Cooling Sizing Factor
  DesignDay,                              !- Cooling Design Air Flow Method
  ,                                       !- Cooling Design Air Flow Rate {m3/s}
  ,                                       !- Cooling Minimum Air Flow per Zone Floor Area {m3/s-m2}
  ,                                       !- Cooling Minimum Air Flow {m3/s}
  ,                                       !- Cooling Minimum Air Flow Fraction
  DesignDay,                              !- Heating Design Air Flow Method
  ,                                       !- Heating Design Air Flow Rate {m3/s}
  ,                                       !- Heating Maximum Air Flow per Zone Floor Area {m3/s-m2}
  ,                                       !- Heating Maximum Air Flow {m3/s}
  ,                                       !- Heating Maximum Air Flow Fraction
  No,                                     !- Account for Dedicated Outdoor Air System
  NeutralSupplyAir,                       !- Dedicated Outdoor Air System Control Strategy
  autosize,                               !- Dedicated Outdoor Air Low Setpoint Temperature for Design {C}
  autosize,                               !- Dedicated Outdoor Air High Setpoint Temperature for Design {C}
  Sensible Load Only No Latent Load,      !- Zone Load Sizing Method
  HumidityRatioDifference,                !- Zone Latent Cooling Design Supply Air Humidity Ratio Input Method
  ,                                       !- Zone Dehumidification Design Supply Air Humidity Ratio {kgWater/kgDryAir}
  0.005,                                  !- Zone Cooling Design Supply Air Humidity Ratio Difference {kgWater/kgDryAir}
  HumidityRatioDifference,                !- Zone Latent Heating Design Supply Air Humidity Ratio Input Method
  ,                                       !- Zone Humidification Design Supply Air Humidity Ratio {kgWater/kgDryAir}
  0.005,                                  !- Zone Humidification Design Supply Air Humidity Ratio Difference {kgWater/kgDryAir}
  ,                                       !- Zone Humidistat Dehumidification Set Point Schedule Name
  ,                                       !- Zone Humidistat Humidification Set Point Schedule Name
  ,                                       !- Design Zone Air Distribution Effectiveness in Cooling Mode
  ,                                       !- Design Zone Air Distribution Effectiveness in Heating Mode
  ,                                       !- Design Zone Secondary Recirculation Fraction {dimensionless}
  ,                                       !- Design Minimum Zone Ventilation Efficiency {dimensionless}
  Coincident;                             !- Sizing Option

OS:ZoneHVAC:EquipmentList,
  {0a6e4b64-a5af-4ac5-bde5-38d6e5cebd51}, !- Handle
  Zone HVAC Equipment List 2,             !- Name
  {38d8410c-eeee-4fce-89d4-89be68407bf7}; !- Thermal Zone

OS:AdditionalProperties,
  {b6b36e34-4e2d-455c-aea5-e8c5ed29094c}, !- Handle
  {38d8410c-eeee-4fce-89d4-89be68407bf7}, !- Object Name
  ObjectType,                             !- Feature Name 1
  String,                                 !- Feature Data Type 1
  attic - vented;                         !- Feature Value 1

OS:Space,
  {c18d4ab2-c1f7-41d7-b484-f51b1da29c53}, !- Handle
  attic - vented 1,                       !- Name
  ,                                       !- Space Type Name
  ,                                       !- Default Construction Set Name
  ,                                       !- Default Schedule Set Name
  ,                                       !- Direction of Relative North {deg}
  ,                                       !- X Origin {m}
  ,                                       !- Y Origin {m}
  ,                                       !- Z Origin {m}
  ,                                       !- Building Story Name
  {38d8410c-eeee-4fce-89d4-89be68407bf7}, !- Thermal Zone Name
  ,                                       !- Part of Total Floor Area
  ,                                       !- Design Specification Outdoor Air Object Name
  ,                                       !- Building Unit Name
  356.390921899745;                       !- Volume {m3}

OS:Material,
  {378cef81-f2a6-4b0d-9cf4-eaf1dd88b7bd}, !- Handle
  asphalt or fiberglass shingles,         !- Name
  Rough,                                  !- Roughness
  0.00635,                                !- Thickness {m}
  0.162714,                               !- Conductivity {W/m-K}
  1121.4,                                 !- Density {kg/m3}
  1465.45,                                !- Specific Heat {J/kg-K}
  0.9,                                    !- Thermal Absorptance
  0.85,                                   !- Solar Absorptance