
OS:Version,
  {b4ab805e-ddbf-4676-8e25-928b20eed28c}, !- Handle
  3.10.0;                                 !- Version Identifier

OS:SimulationControl,
  {b4533b89-77b8-48cc-a635-4febafe6ac41}, !- Handle
  ,                                       !- Do Zone Sizing Calculation
  ,                                       !- Do System Sizing Calculation
  ,                                       !- Do Plant Sizing Calculation
  No;                                     !- Run Simulation for Sizing Periods

OS:Timestep,
  {707d5b19-e433-4f6d-95cf-ed0b2a379325}, !- Handle
  1;                                      !- Number of Timesteps per Hour

OS:ShadowCalculation,
  {2ad5910d-8f57-4d4b-9336-ed311df68cba}, !- Handle
  PolygonClipping,                        !- Shading Calculation Method
  ,                                       !- Shading Calculation Update Frequency Method
  20,                                     !- Shading Calculation Update Frequency
  200,                                    !- Maximum Figures in Shadow Overlap Calculations
  ,                                       !- Polygon Clipping Algorithm
  512,                                    !- Pixel Counting Resolution
  ,                                       !- Sky Diffuse Modeling Algorithm
  No,                                     !- Output External Shading Calculation Results
  No,                                     !- Disable Self-Shading Within Shading Zone Groups
  No;                                     !- Disable Self-Shading From Shading Zone Groups to Other Zones

OS:SurfaceConvectionAlgorithm:Outside,
  {4e4badd0-ca32-4a12-aa75-fb214d22ea48}, !- Handle
  DOE-2;                                  !- Algorithm

OS:SurfaceConvectionAlgorithm:Inside,
  {c42643ed-adcc-48f2-82e1-4317e5781422}, !- Handle
  TARP;                                   !- Algorithm

OS:ZoneCapacitanceMultiplier:ResearchSpecial,
  {6f55bf86-e8e1-42eb-ae27-8661f340ec2f}, !- Handle
  7,                                      !- Temperature Capacity Multiplier
  15,                                     !- Humidity Capacity Multiplier
  ;                                       !- Carbon Dioxide Capacity Multiplier

OS:ConvergenceLimits,
  {25aa67c0-fdcd-424c-aece-65eccfd70d00}, !- Handle
  0;                                      !- Minimum System Timestep {minutes}

OS:RunPeriod,
  {bdf2a4e4-175d-4d05-904a-44fe7e6d72ba}, !- Handle
  Run Period 1,                           !- Name
  1,                                      !- Begin Month
  1,                                      !- Begin Day of Month
  12,                                     !- End Month
  31,                                     !- End Day of Month
  ,                                       !- Use Weather File Holidays and Special Days
  ,                                       !- Use Weather File Daylight Saving Period
  ,                                       !- Apply Weekend Holiday Rule
  ,                                       !- Use Weather File Rain Indicators
  ,                                       !- Use Weather File Snow Indicators
  ;                                       !- Number of Times Runperiod to be Repeated

OS:PerformancePrecisionTradeoffs,
  {e440ae43-f127-4c45-b304-c28e2a1cc3dd}, !- Handle
  ,                                       !- Use Coil Direct Solutions
  CarrollMRT;                             !- Zone Radiant Exchange Algorithm

OS:WeatherFile,
  {e83b9e62-d2fe-4046-9f4e-d9a3fec28184}, !- Handle
  Buffalo Niagara Intl Ap,                !- City
  NY,                                     !- State Province Region
  USA,                                    !- Country
  TMY3,                                   !- Data Source
  725280,                                 !- WMO Number
  42.93,                                  !- Latitude {deg}
  -78.73,                                 !- Longitude {deg}
  -5,                                     !- Time Zone {hr}
  215,                                    !- Elevation {m}
  /Users/nmoore/github/urbanopt-example-geojson-project/example_project/weather/USA_NY_Buffalo-Greater.Buffalo.Intl.AP.725280_TMY3.epw, !- Url
  6B50E0FF,                               !- Checksum
  ,                                       !- Start Date Actual Year
  Sunday;                                 !- Start Day of Week

OS:YearDescription,
  {7f83b62a-f7be-4003-b74a-2df1704895b2}, !- Handle
  2007,                                   !- Calendar Year
  ,                                       !- Day of Week for Start Day
  ;                                       !- Is Leap Year

OS:Site,
  {613984e3-706a-4473-b67a-529c74bef70a}, !- Handle
  Buffalo Niagara Intl Ap_NY,             !- Name
  42.93,                                  !- Latitude {deg}
  -78.73,                                 !- Longitude {deg}
  -5,                                     !- Time Zone {hr}
  215,                                    !- Elevation {m}
  Suburbs,                                !- Terrain
  Yes;                                    !- Keep Site Location Information

OS:RunPeriodControl:DaylightSavingTime,
  {d9f26744-df9e-4e52-94eb-cfce5cea147b}, !- Handle
  Mar 12,                                 !- Start Date
  Nov 5;                                  !- End Date

OS:Site:GroundTemperature:Shallow,
  {cc0296f4-3cc6-4cec-919b-303ad78a5843}, !- Handle
  4.30207395723828,                       !- January Surface Ground Temperature {C}
  2.29327249652502,                       !- February Surface Ground Temperature {C}
  2.13240047156047,                       !- March Surface Ground Temperature {C}
  3.08567940719286,                       !- April Surface Ground Temperature {C}
  6.91256312497526,                       !- May Surface Ground Temperature {C}
  10.7216195949507,                       !- June Surface Ground Temperature {C}
  14.0238679822574,                       !- July Surface Ground Temperature {C}
  16.1157611184724,                       !- August Surface Ground Temperature {C}
  16.2934789303462,                       !- September Surface Ground Temperature {C}
  14.5920754632847,                       !- October Surface Ground Temperature {C}
  11.374036348653,                        !- November Surface Ground Temperature {C}
  7.68182621661674;                       !- December Surface Ground Temperature {C}

OS:ThermalZone,
  {4036827d-bdd7-4faf-9ff3-7e81ecb7f4ed}, !- Handle
  conditioned space,                      !- Name
  1,                                      !- Multiplier
  ,                                       !- Ceiling Height {m}
  692.06373070848,                        !- Volume {m3}
  ,                                       !- Floor Area {m2}
  ,                                       !- Zone Inside Convection Algorithm
  ,                                       !- Zone Outside Convection Algorithm
  ,                                       !- Zone Conditioning Equipment List Name
  {603e1adc-21a1-448c-8ef1-0ebe73dbc755}, !- Zone Air Inlet Port List
  {f696fb65-a8ad-452c-8fc4-7436294db18e}, !- Zone Air Exhaust Port List
  {793dad8d-1724-4405-b7a4-380625969e17}, !- Zone Air Node Name
  {d9775fb1-3160-476c-a5d9-419b2b0ecfa3}, !- Zone Return Air Port List
  ,                                       !- Primary Daylighting Control Name
  ,                                       !- Fraction of Zone Controlled by Primary Daylighting Control
  ,                                       !- Secondary Daylighting Control Name
  ,                                       !- Fraction of Zone Controlled by Secondary Daylighting Control
  ,                                       !- Illuminance Map Name
  ,                                       !- Group Rendering Name
  {42ae03dc-f1da-417b-ac4e-47ad2d5b41bb}, !- Thermostat Name
  No;                                     !- Use Ideal Air Loads

OS:Node,
  {8f147cb6-fdf5-4e40-977f-ef78db6d8140}, !- Handle
  Node 1,                                 !- Name
  {793dad8d-1724-4405-b7a4-380625969e17}, !- Inlet Port
  ;                                       !- Outlet Port

OS:Connection,
  {793dad8d-1724-4405-b7a4-380625969e17}, !- Handle
  {4036827d-bdd7-4faf-9ff3-7e81ecb7f4ed}, !- Source Object
  11,                                     !- Outlet Port
  {8f147cb6-fdf5-4e40-977f-ef78db6d8140}, !- Target Object
  2;                                      !- Inlet Port

OS:PortList,
  {603e1adc-21a1-448c-8ef1-0ebe73dbc755}, !- Handle
  {4036827d-bdd7-4faf-9ff3-7e81ecb7f4ed}, !- HVAC Component
  {afeb80d5-9647-4048-ac06-9d2a2c2d267d}; !- Port 1

OS:PortList,
  {f696fb65-a8ad-452c-8fc4-7436294db18e}, !- Handle
  {4036827d-bdd7-4faf-9ff3-7e81ecb7f4ed}; !- HVAC Component

OS:PortList,
  {d9775fb1-3160-476c-a5d9-419b2b0ecfa3}, !- Handle
  {4036827d-bdd7-4faf-9ff3-7e81ecb7f4ed}, !- HVAC Component
  {01cbfafe-3797-46fe-ac2f-072029421f7a}; !- Port 1

OS:Sizing:Zone,
  {774ee33a-e51b-4587-a1ae-337f8a24ac23}, !- Handle
  {4036827d-bdd7-4faf-9ff3-7e81ecb7f4ed}, !- Zone or ZoneList Name
  SupplyAirTemperature,                   !- Zone Cooling Design Supply Air Temperature Input Method
  14,                                     !- Zone Cooling Design Supply Air Temperature {C}
  11.11,                                  !- Zone Cooling Design Supply Air Temperature Difference {deltaC}
  SupplyAirTemperature,                   !- Zone Heating Design Supply Air Temperature Input Method
  40,                                     !- Zone Heating Design Supply Air Temperature {C}
  11.11,                                  !- Zone Heating Design Supply Air Temperature Difference {deltaC}
  0.0085,                                 !- Zone Cooling Design Supply Air Humidity Ratio {kg-H2O/kg-air}
  0.008,                                  !- Zone Heating Design Supply Air Humidity Ratio {kg-H2O/kg-air}
  ,                                       !- Zone Heating Sizing Factor
  ,                                       !- Zone Cooling Sizing Factor
  DesignDay,                              !- Cooling Design Air Flow Method
  ,                                       !- Cooling Design Air Flow Rate {m3/s}
  ,                                       !- Cooling Minimum Air Flow per Zone Floor Area {m3/s-m2}
  ,                                       !- Cooling Minimum Air Flow {m3/s}
  ,                                       !- Cooling Minimum Air Flow Fraction
  DesignDay,                              !- Heating Design Air Flow Method
  ,                                       !- Heating Design Air Flow Rate {m3/s}
  ,                                       !- Heating Maximum Air Flow per Zone Floor Area {m3/s-m2}
  ,                                       !- Heating Maximum Air Flow {m3/s}
  ,                                       !- Heating Maximum Air Flow Fraction
  No,                                     !- Account for Dedicated Outdoor Air System
  NeutralSupplyAir,                       !- Dedicated Outdoor Air System Control Strategy
  autosize,                               !- Dedicated Outdoor Air Low Setpoint Temperature for Design {C}
  autosize,                               !- Dedicated Outdoor Air High Setpoint Temperature for Design {C}
  Sensible Load Only No Latent Load,      !- Zone Load Sizing Method
  HumidityRatioDifference,                !- Zone Latent Cooling Design Supply Air Humidity Ratio Input Method
  ,                                       !- Zone Dehumidification Design Supply Air Humidity Ratio {kgWater/kgDryAir}
  0.005,                                  !- Zone Cooling Design Supply Air Humidity Ratio Difference {kgWater/kgDryAir}
  HumidityRatioDifference,                !- Zone Latent Heating Design Supply Air Humidity Ratio Input Method
  ,                                       !- Zone Humidification Design Supply Air Humidity Ratio {kgWater/kgDryAir}
  0.005,                                  !- Zone Humidification Design Supply Air Humidity Ratio Difference {kgWater/kgDryAir}
  ,                                       !- Zone Humidistat Dehumidification Set Point Schedule Name
  ,                                       !- Zone Humidistat Humidification Set Point Schedule Name
  ,                                       !- Design Zone Air Distribution Effectiveness in Cooling Mode
  ,                                       !- Design Zone Air Distribution Effectiveness in Heating Mode
  ,                                       !- Design Zone Secondary Recirculation Fraction {dimensionless}
  ,                                       !- Design Minimum Zone Ventilation Efficiency {dimensionless}
  Coincident;                             !- Sizing Option

OS:ZoneHVAC:EquipmentList,
  {f85716c6-6f9f-41f3-81ec-175f833ce65e}, !- Handle
  Zone HVAC Equipment List 1,             !- Name
  {4036827d-bdd7-4faf-9ff3-7e81ecb7f4ed}, !- Thermal Zone
  ,                                       !- Load Distribution Scheme
  {e0e7bc15-7a88-4a32-acd3-6deccb5a0736}, !- Zone Equipment 1
  1,                                      !- Zone Equipment Cooling Sequence 1
  1,                                      !- Zone Equipment Heating or No-Load Sequence 1
  {ace123ab-0267-4b4b-ad85-2ab7ecb4129c}, !- Zone Equipment Sequential Cooling Fraction Schedule Name 1
  {13eca458-c710-4d73-81cf-42f1da4ca4db}, !- Zone Equipment Sequential Heating Fraction Schedule Name 1
  {2a1a9423-7cbe-4598-b808-58111438b332}, !- Zone Equipment 2
  2,                                      !- Zone Equipment Cooling Sequence 2
  2,                                      !- Zone Equipment Heating or No-Load Sequence 2
  {e803ffe3-25fc-429a-a743-d4cec203c72c}, !- Zone Equipment Sequential Cooling Fraction Schedule Name 2
  {a767ba34-2ff6-4910-974f-0fe298a499e2}; !- Zone Equipment Sequential Heating Fraction Schedule Name 2

OS:AdditionalProperties,
  {d8db12b5-b395-4388-b11d-868d4e22fe71}, !- Handle
  {4036827d-bdd7-4faf-9ff3-7e81ecb7f4ed}, !- Object Name
  ObjectType,                             !- Feature Name 1
  String,                                 !- Feature Data Type 1
  conditioned space;                      !- Feature Value 1

OS:Space,
  {f3aad8e3-cfad-41e8-8a91-1f378244e16a}, !- Handle
  conditioned space 1,                    !- Name
  ,                                       !- Space Type Name
  ,                                       !- Default Construction Set Name
  ,                                       !- Default Schedule Set Name
  ,                                       !- Direction of Relative North {deg}
  ,                                       !- X Origin {m}
  ,                                       !- Y Origin {m}
  ,                                       !- Z Origin {m}
  ,                                       !- Building Story Name
  {4036827d-bdd7-4faf-9ff3-7e81ecb7f4ed}, !- Thermal Zone Name
  ,                                       !- Part of Total Floor Area
  ,                                       !- Design Specification Outdoor Air Object Name
  ,                                       !- Building Unit Name
  692.06373070848;                        !- Volume {m3}

OS:Schedule:Ruleset,
  {5d988340-bfa8-4691-a562-2d190ad795ae}, !- Handle
  heating setpoint,                       !- Name
  {9e556a90-9d47-4000-85e2-750d5d951bbd}, !- Schedule Type Limits Name
  {d8e2b73a-37fb-413b-85c3-83b43e22db61}; !- Default Day Schedule Name

OS:Schedule:Day,
  {d8e2b73a-37fb-413b-85c3-83b43e22db61}, !- Handle
  heating setpoint default day,           !- Name
  {9e556a90-9d47-4000-85e2-750d5d951bbd}, !- Schedule Type Limits Name
  ,                                       !- Interpolate to Timestep
  24,                                     !- Hour 1
  0,                                      !- Minute 1
  0;                                      !- Value Until Time 1

OS:Schedule:Rule,
  {d5b7c604-2a88-4b27-8220-b288e99eeddc}, !- Handle
  heating setpoint allday rule,           !- Name
  {5d988340-bfa8-4691-a562-2d190ad795ae}, !- Schedule Ruleset Name
  0,                                      !- Rule Order
  {4051a445-1872-45a1-bf51-b9e47d1d68d4}, !- Day Schedule Name
  Yes,                                    !- Apply Sunday
  Yes,                                    !- Apply Monday
  Yes,                                    !- Apply Tuesday
  Yes,                                    !- Apply Wednesday
  Yes,                                    !- Apply Thursday
  Yes,                                    !- Apply Friday
  Yes,                                    !- Apply Saturday
  DateRange,                              !- Date Specification Type
  1,                                      !- Start Month
  1,                                      !- Start Day
  12,                                     !- End Month
  31;                                     !- End Day

OS:Schedule:Day,
  {4051a445-1872-45a1-bf51-b9e47d1d68d4}, !- Handle
  heating setpoint day,                   !- Name
  {9e556a90-9d47-4000-85e2-750d5d951bbd}, !- Schedule Type Limits Name
  ,                                       !- Interpolate to Timestep
  24,                                     !- Hour 1
  0,                                      !- Minute 1
  20;                                     !- Value Until Time 1

OS:Schedule:Ruleset,
  {509cbc3b-7ef7-4d11-a408-d0ba58d61b47}, !- Handle
  cooling setpoint,                       !- Name
  {9e556a90-9d47-4000-85e2-750d5d951bbd}, !- Schedule Type Limits Name
  {93467788-0f5a-4336-a1e5-95cd22f6fe00}; !- Default Day Schedule Name

OS:Schedule:Day,
  {93467788-0f5a-4336-a1e5-95cd22f6fe00}, !- Handle
  cooling setpoint default day,           !- Name
  {9e556a90-9d47-4000-85e2-750d5d951bbd}, !- Schedule Type Limits Name
  ,                                       !- Interpolate to Timestep
  24,                                     !- Hour 1
  0,                                      !- Minute 1
  0;                                      !- Value Until Time 1

OS:Schedule:Rule,
  {6e0f991c-c96c-4aaf-9768-1f840ddde2e7}, !- Handle
  cooling setpoint allday rule,           !- Name
  {509cbc3b-7ef7-4d11-a408-d0ba58d61b47}, !- Schedule Ruleset Name
  0,                                      !- Rule Order
  {5e22127e-713f-478a-8ebb-dec910c0a1f5}, !- Day Schedule Name
  Yes,                                    !- Apply Sunday
  Yes,                                    !- Apply Monday
  Yes,                                    !- Apply Tuesday
  Yes,                                    !- Apply Wednesday
  Yes,                                    !- Apply Thursday
  Yes,                                    !- Apply Friday
  Yes,                                    !- Apply Saturday
  DateRange,                              !- Date Specification Type
  1,                                      !- Start Month
  1,                                      !- Start Day
  12,                                     !- End Month
  31;                                     !- End Day

OS:Schedule:Day,
  {5e22127e-713f-478a-8ebb-dec910c0a1f5}, !- Handle
  cooling setpoint day,                   !- Name
  {9e556a90-9d47-4000-85e2-750d5d951bbd}, !- Schedule Type Limits Name
  ,                                       !- Interpolate to Timestep
  24,                                     !- Hour 1
  0,                                      !- Minute 1
  25.5555555555556;                       !- Value Until Time 1

OS:ThermostatSetpoint:DualSetpoint,
  {42ae03dc-f1da-417b-ac4e-47ad2d5b41bb}, !- Handle
  conditioned space temperature setpoint, !- Name
  {5d988340-bfa8-4691-a562-2d190ad795ae}, !- Heating Setpoint Temperature Schedule Name
  {509cbc3b-7ef7-4d11-a408-d0ba58d61b47}, !- Cooling Setpoint Temperature Schedule Name
  0;                                      !- Temperature Difference Between Cutout And Setpoint {deltaC}

OS:ScheduleTypeLimits,
  {9e556a90-9d47-4000-85e2-750d5d951bbd}, !- Handle
  Temperature,                            !- Name
  ,                                       !- Lower Limit Value
  ,                                       !- Upper Limit Value
  Continuous,                             !- Numeric Type
  Temperature;                            !- Unit Type

OS:Surface,
  {cfa168f8-0f29-482f-a474-659ebef0220a}, !- Handle
  Roof1,                                  !- Name
  RoofCeiling,                            !- Surface Type
  {86d0fa6e-f193-45cf-a66d-b00fe3efdab1}, !- Construction Name
  {1ee5a07a-8bf7-42c8-b9b9-01d5e9ed0ecc}, !- Space Name
  Outdoors,                               !- Outside Boundary Condition
  ,                                       !- Outside Boundary Condition Object
  SunExposed,                             !- Sun Exposure
  WindExposed,                            !- Wind Exposure
  ,                                       !- View Factor to Ground
  ,                                       !- Number of Vertices
  -26.9347048849634, 58.0557891618865, 2.4384, !- X,Y,Z Vertex 1 {m}
  -26.9347048849634, 46.7895631136661, 8.0715130241102, !- X,Y,Z Vertex 2 {m}
  -14.3386812381136, 46.7895631136661, 8.0715130241102, !- X,Y,Z Vertex 3 {m}
  -14.3386812381136, 58.0557891618865, 2.4384; !- X,Y,Z Vertex 4 {m}

OS:AdditionalProperties,
  {513c13f3-0f7c-41fe-9fbb-e0568bd55f20}, !- Handle
  {cfa168f8-0f29-482f-a474-659ebef0220a}, !- Object Name
  Length,                                 !- Feature Name 1
  Double,                                 !- Feature Data Type 1
  41.325536899113608,                     !- Feature Value 1
  Width,                                  !- Feature Name 2
  Double,                                 !- Feature Data Type 2
  41.325536899113601,                     !- Feature Value 2
  Azimuth,                                !- Feature Name 3
  Integer,                                !- Feature Data Type 3
  0,                                      !- Feature Value 3
  Tilt,                                   !- Feature Name 4
  Double,                                 !- Feature Data Type 4
  0.5,                                    !- Feature Value 4
  SurfaceType,                            !- Feature Name 5
  String,                                 !- Feature Data Type 5
  Roof;                                   !- Feature Value 5

OS:ThermalZone,
  {0327d5b0-eb2c-4e56-a0ff-6b0cf23a1371}, !- Handle
  attic - vented,                         !- Name
  1,                                      !- Multiplier
  ,                                       !- Ceiling Height {m}
  356.390921899745,                       !- Volume {m3}
  ,                                       !- Floor Area {m2}
  ,                                       !- Zone Inside Convection Algorithm
  ,                                       !- Zone Outside Convection Algorithm
  ,                                       !- Zone Conditioning Equipment List Name
  {1e7d6c89-0894-4acb-b6ce-de5b11cc2177}, !- Zone Air Inlet Port List
  {c4932c88-8a69-4646-a335-0e486d83e652}, !- Zone Air Exhaust Port List
  {9c4c2475-4931-48c9-bb40-f0c16c562cca}, !- Zone Air Node Name
  {d7ab07af-085a-41a8-b842-96f183bab511}, !- Zone Return Air Port List
  ,                                       !- Primary Daylighting Control Name
  ,                                       !- Fraction of Zone Controlled by Primary Daylighting Control
  ,                                       !- Secondary Daylighting Control Name
  ,                                       !- Fraction of Zone Controlled by Secondary Daylighting Control
  ,                                       !- Illuminance Map Name
  ,                                       !- Group Rendering Name
  ,                                       !- Thermostat Name
  No;                                     !- Use Ideal Air Loads

OS:Node,
  {3506d46c-787d-4af0-9cc0-4eb044dcdf62}, !- Handle
  Node 2,                                 !- Name
  {9c4c2475-4931-48c9-bb40-f0c16c562cca}, !- Inlet Port
  ;                                       !- Outlet Port

OS:Connection,
  {9c4c2475-4931-48c9-bb40-f0c16c562cca}, !- Handle
  {0327d5b0-eb2c-4e56-a0ff-6b0cf23a1371}, !- Source Object
  11,                                     !- Outlet Port
  {3506d46c-787d-4af0-9cc0-4eb044dcdf62}, !- Target Object
  2;                                      !- Inlet Port

OS:PortList,
  {1e7d6c89-0894-4acb-b6ce-de5b11cc2177}, !- Handle
  {0327d5b0-eb2c-4e56-a0ff-6b0cf23a1371}; !- HVAC Component

OS:PortList,
  {c4932c88-8a69-4646-a335-0e486d83e652}, !- Handle
  {0327d5b0-eb2c-4e56-a0ff-6b0cf23a1371}; !- HVAC Component

OS:PortList,
  {d7ab07af-085a-41a8-b842-96f183bab511}, !- Handle
  {0327d5b0-eb2c-4e56-a0ff-6b0cf23a1371}; !- HVAC Component

OS:Sizing:Zone,
  {52be1045-9604-4251-bbca-50d49a5acea0}, !- Handle
  {0327d5b0-eb2c-4e56-a0ff-6b0cf23a1371}, !- Zone or ZoneList Name
  SupplyAirTemperature,                   !- Zone Cooling Design Supply Air Temperature Input Method
  14,                                     !- Zone Cooling Design Supply Air Temperature {C}
  11.11,                                  !- Zone Cooling Design Supply Air Temperature Difference {deltaC}
  SupplyAirTemperature,                   !- Zone Heating Design Supply Air Temperature Input Method
  40,                                     !- Zone Heating Design Supply Air Temperature {C}
  11.11,                                  !- Zone Heating Design Supply Air Temperature Difference {deltaC}
  0.0085,                                 !- Zone Cooling Design Supply Air Humidity Ratio {kg-H2O/kg-air}
  0.008,                                  !- Zone Heating Design Supply Air Humidity Ratio {kg-H2O/kg-air}
  ,                                       !- Zone Heating Sizing Factor
  ,                                       !- Zone Cooling Sizing Factor
  DesignDay,                              !- Cooling Design Air Flow Method
  ,                                       !- Cooling Design Air Flow Rate {m3/s}
  ,                                       !- Cooling Minimum Air Flow per Zone Floor Area {m3/s-m2}
  ,                                       !- Cooling Minimum Air Flow {m3/s}
  ,                                       !- Cooling Minimum Air Flow Fraction
  DesignDay,                              !- Heating Design Air Flow Method
  ,                                       !- Heating Design Air Flow Rate {m3/s}
  ,                                       !- Heating Maximum Air Flow per Zone Floor Area {m3/s-m2}
  ,                                       !- Heating Maximum Air Flow {m3/s}
  ,                                       !- Heating Maximum Air Flow Fraction
  No,                                     !- Account for Dedicated Outdoor Air System
  NeutralSupplyAir,                       !- Dedicated Outdoor Air System Control Strategy
  autosize,                               !- Dedicated Outdoor Air Low Setpoint Temperature for Design {C}
  autosize,                               !- Dedicated Outdoor Air High Setpoint Temperature for Design {C}
  Sensible Load Only No Latent Load,      !- Zone Load Sizing Method
  HumidityRatioDifference,                !- Zone Latent Cooling Design Supply Air Humidity Ratio Input Method
  ,                                       !- Zone Dehumidification Design Supply Air Humidity Ratio {kgWater/kgDryAir}
  0.005,                                  !- Zone Cooling Design Supply Air Humidity Ratio Difference {kgWater/kgDryAir}
  HumidityRatioDifference,                !- Zone Latent Heating Design Supply Air Humidity Ratio Input Method
  ,                                       !- Zone Humidification Design Supply Air Humidity Ratio {kgWater/kgDryAir}
  0.005,                                  !- Zone Humidification Design Supply Air Humidity Ratio Difference {kgWater/kgDryAir}
  ,                                       !- Zone Humidistat Dehumidification Set Point Schedule Name
  ,                                       !- Zone Humidistat Humidification Set Point Schedule Name
  ,                                       !- Design Zone Air Distribution Effectiveness in Cooling Mode
  ,                                       !- Design Zone Air Distribution Effectiveness in Heating Mode
  ,                                       !- Design Zone Secondary Recirculation Fraction {dimensionless}
  ,                                       !- Design Minimum Zone Ventilation Efficiency {dimensionless}
  Coincident;                             !- Sizing Option

OS:ZoneHVAC:EquipmentList,
  {8cafb1a2-04de-4ae8-a4c2-7ca99f248656}, !- Handle
  Zone HVAC Equipment List 2,             !- Name
  {0327d5b0-eb2c-4e56-a0ff-6b0cf23a1371}; !- Thermal Zone

OS:AdditionalProperties,
  {c68167cf-95f1-49f0-b9af-1533423351ec}, !- Handle
  {0327d5b0-eb2c-4e56-a0ff-6b0cf23a1371}, !- Object Name
  ObjectType,                             !- Feature Name 1
  String,                                 !- Feature Data Type 1
  attic - vented;                         !- Feature Value 1

OS:Space,
  {1ee5a07a-8bf7-42c8-b9b9-01d5e9ed0ecc}, !- Handle
  attic - vented 1,                       !- Name
  ,                                       !- Space Type Name
  ,                                       !- Default Construction Set Name
  ,                                       !- Default Schedule Set Name
  ,                                       !- Direction of Relative North {deg}
  ,                                       !- X Origin {m}
  ,                                       !- Y Origin {m}
  ,                                       !- Z Origin {m}
  ,                                       !- Building Story Name
  {0327d5b0-eb2c-4e56-a0ff-6b0cf23a1371}, !- Thermal Zone Name
  ,                                       !- Part of Total Floor Area
  ,                                       !- Design Specification Outdoor Air Object Name
  ,                                       !- Building Unit Name
  356.390921899745;                       !- Volume {m3}

OS:Material,
  {4438db36-6e10-4f39-b22f-0de0f4c95a86}, !- Handle
  asphalt or fiberglass shingles,         !- Name