
OS:Version,
  {2b884e51-b7a0-4a8a-8db9-9fbe30675954}, !- Handle
  3.9.0;                                  !- Version Identifier

OS:SimulationControl,
  {65380e94-8424-40d5-b915-4d107c9b13ce}, !- Handle
  ,                                       !- Do Zone Sizing Calculation
  ,                                       !- Do System Sizing Calculation
  ,                                       !- Do Plant Sizing Calculation
  No;                                     !- Run Simulation for Sizing Periods

OS:Timestep,
  {64f5e62a-2c9b-4c25-a61c-d9396b6f99d8}, !- Handle
  1;                                      !- Number of Timesteps per Hour

OS:ShadowCalculation,
  {03000f5f-af5b-4f00-bb0c-b86372611eaa}, !- Handle
  PolygonClipping,                        !- Shading Calculation Method
  ,                                       !- Shading Calculation Update Frequency Method
  20,                                     !- Shading Calculation Update Frequency
  200,                                    !- Maximum Figures in Shadow Overlap Calculations
  ,                                       !- Polygon Clipping Algorithm
  512,                                    !- Pixel Counting Resolution
  ,                                       !- Sky Diffuse Modeling Algorithm
  No,                                     !- Output External Shading Calculation Results
  No,                                     !- Disable Self-Shading Within Shading Zone Groups
  No;                                     !- Disable Self-Shading From Shading Zone Groups to Other Zones

OS:SurfaceConvectionAlgorithm:Outside,
  {db226418-67ac-450f-9fa4-75baad64b18b}, !- Handle
  DOE-2;                                  !- Algorithm

OS:SurfaceConvectionAlgorithm:Inside,
  {6c91776b-7a15-49ec-9857-4c542aafc19d}, !- Handle
  TARP;                                   !- Algorithm

OS:ZoneCapacitanceMultiplier:ResearchSpecial,
  {20f972af-dbe6-47b1-9359-be808724dddf}, !- Handle
  7,                                      !- Temperature Capacity Multiplier
  15,                                     !- Humidity Capacity Multiplier
  ;                                       !- Carbon Dioxide Capacity Multiplier

OS:ConvergenceLimits,
  {081e8a5a-5b83-4b34-833f-0ab0f5d2fa34}, !- Handle
  0;                                      !- Minimum System Timestep {minutes}

OS:RunPeriod,
  {b66dea6e-7b3e-461a-9fda-2b7e6c6a3616}, !- Handle
  Run Period 1,                           !- Name
  1,                                      !- Begin Month
  1,                                      !- Begin Day of Month
  12,                                     !- End Month
  31,                                     !- End Day of Month
  ,                                       !- Use Weather File Holidays and Special Days
  ,                                       !- Use Weather File Daylight Saving Period
  ,                                       !- Apply Weekend Holiday Rule
  ,                                       !- Use Weather File Rain Indicators
  ,                                       !- Use Weather File Snow Indicators
  ;                                       !- Number of Times Runperiod to be Repeated

OS:PerformancePrecisionTradeoffs,
  {cb5be3d0-52e5-4e89-85e9-0d1218def5a6}, !- Handle
  ,                                       !- Use Coil Direct Solutions
  CarrollMRT;                             !- Zone Radiant Exchange Algorithm

OS:WeatherFile,
  {65272649-4726-459f-b0ac-8fd7abc202b5}, !- Handle
  Buffalo Niagara Intl Ap,                !- City
  NY,                                     !- State Province Region
  USA,                                    !- Country
  TMY3,                                   !- Data Source
  725280,                                 !- WMO Number
  42.93,                                  !- Latitude {deg}
  -78.73,                                 !- Longitude {deg}
  -5,                                     !- Time Zone {hr}
  215,                                    !- Elevation {m}
  /Users/nmoore/github/urbanopt-example-geojson-project/example_project/weather/USA_NY_Buffalo-Greater.Buffalo.Intl.AP.725280_TMY3.epw, !- Url
  6B50E0FF,                               !- Checksum
  ,                                       !- Start Date Actual Year
  Sunday;                                 !- Start Day of Week

OS:YearDescription,
  {fa1bedee-faca-45b5-b375-b3c52b4cd9c6}, !- Handle
  2007,                                   !- Calendar Year
  ,                                       !- Day of Week for Start Day
  ;                                       !- Is Leap Year

OS:Site,
  {258e5380-37c8-4235-996f-2b0c39e95bd2}, !- Handle
  Buffalo Niagara Intl Ap_NY,             !- Name
  42.93,                                  !- Latitude {deg}
  -78.73,                                 !- Longitude {deg}
  -5,                                     !- Time Zone {hr}
  215,                                    !- Elevation {m}
  Suburbs,                                !- Terrain
  Yes;                                    !- Keep Site Location Information

OS:RunPeriodControl:DaylightSavingTime,
  {6fa0c60d-3846-41aa-bbed-7a5c50648805}, !- Handle
  Mar 12,                                 !- Start Date
  Nov 5;                                  !- End Date

OS:Site:GroundTemperature:Shallow,
  {7c1d4f28-3edd-4857-b307-fc420b970fa3}, !- Handle
  4.30207395723828,                       !- January Surface Ground Temperature {C}
  2.29327249652502,                       !- February Surface Ground Temperature {C}
  2.13240047156047,                       !- March Surface Ground Temperature {C}
  3.08567940719286,                       !- April Surface Ground Temperature {C}
  6.91256312497526,                       !- May Surface Ground Temperature {C}
  10.7216195949507,                       !- June Surface Ground Temperature {C}
  14.0238679822574,                       !- July Surface Ground Temperature {C}
  16.1157611184724,                       !- August Surface Ground Temperature {C}
  16.2934789303462,                       !- September Surface Ground Temperature {C}
  14.5920754632847,                       !- October Surface Ground Temperature {C}
  11.374036348653,                        !- November Surface Ground Temperature {C}
  7.68182621661674;                       !- December Surface Ground Temperature {C}

OS:ThermalZone,
  {0bd720d0-7492-4b45-bac2-0a68997e2ba2}, !- Handle
  conditioned space,                      !- Name
  1,                                      !- Multiplier
  ,                                       !- Ceiling Height {m}
  692.06373070848,                        !- Volume {m3}
  ,                                       !- Floor Area {m2}
  ,                                       !- Zone Inside Convection Algorithm
  ,                                       !- Zone Outside Convection Algorithm
  ,                                       !- Zone Conditioning Equipment List Name
  {4eebac25-a841-4d00-9fff-3bdc0b557509}, !- Zone Air Inlet Port List
  {72c69424-2db5-498d-81b0-eb03bafaa883}, !- Zone Air Exhaust Port List
  {e5ed0c0c-2b0f-41b3-85ae-934d8d5c68ac}, !- Zone Air Node Name
  {db19af23-86da-4906-a18f-e6659ecc5914}, !- Zone Return Air Port List
  ,                                       !- Primary Daylighting Control Name
  ,                                       !- Fraction of Zone Controlled by Primary Daylighting Control
  ,                                       !- Secondary Daylighting Control Name
  ,                                       !- Fraction of Zone Controlled by Secondary Daylighting Control
  ,                                       !- Illuminance Map Name
  ,                                       !- Group Rendering Name
  {c563113b-9f76-46e4-9489-34563bf82bdc}, !- Thermostat Name
  No;                                     !- Use Ideal Air Loads

OS:Node,
  {3758b55b-ae4e-4e53-8230-2d6f871f943f}, !- Handle
  Node 1,                                 !- Name
  {e5ed0c0c-2b0f-41b3-85ae-934d8d5c68ac}, !- Inlet Port
  ;                                       !- Outlet Port

OS:Connection,
  {e5ed0c0c-2b0f-41b3-85ae-934d8d5c68ac}, !- Handle
  {0bd720d0-7492-4b45-bac2-0a68997e2ba2}, !- Source Object
  11,                                     !- Outlet Port
  {3758b55b-ae4e-4e53-8230-2d6f871f943f}, !- Target Object
  2;                                      !- Inlet Port

OS:PortList,
  {4eebac25-a841-4d00-9fff-3bdc0b557509}, !- Handle
  {0bd720d0-7492-4b45-bac2-0a68997e2ba2}, !- HVAC Component
  {545564f7-0afd-42af-9fb1-460ef790b9b7}; !- Port 1

OS:PortList,
  {72c69424-2db5-498d-81b0-eb03bafaa883}, !- Handle
  {0bd720d0-7492-4b45-bac2-0a68997e2ba2}; !- HVAC Component

OS:PortList,
  {db19af23-86da-4906-a18f-e6659ecc5914}, !- Handle
  {0bd720d0-7492-4b45-bac2-0a68997e2ba2}, !- HVAC Component
  {c728a646-e101-4b35-bf5e-7890fb47b961}; !- Port 1

OS:Sizing:Zone,
  {ab43e909-dc4d-43ad-bbe9-0174bc3dafb6}, !- Handle
  {0bd720d0-7492-4b45-bac2-0a68997e2ba2}, !- Zone or ZoneList Name
  SupplyAirTemperature,                   !- Zone Cooling Design Supply Air Temperature Input Method
  14,                                     !- Zone Cooling Design Supply Air Temperature {C}
  11.11,                                  !- Zone Cooling Design Supply Air Temperature Difference {deltaC}
  SupplyAirTemperature,                   !- Zone Heating Design Supply Air Temperature Input Method
  40,                                     !- Zone Heating Design Supply Air Temperature {C}
  11.11,                                  !- Zone Heating Design Supply Air Temperature Difference {deltaC}
  0.0085,                                 !- Zone Cooling Design Supply Air Humidity Ratio {kg-H2O/kg-air}
  0.008,                                  !- Zone Heating Design Supply Air Humidity Ratio {kg-H2O/kg-air}
  ,                                       !- Zone Heating Sizing Factor
  ,                                       !- Zone Cooling Sizing Factor
  DesignDay,                              !- Cooling Design Air Flow Method
  ,                                       !- Cooling Design Air Flow Rate {m3/s}
  ,                                       !- Cooling Minimum Air Flow per Zone Floor Area {m3/s-m2}
  ,                                       !- Cooling Minimum Air Flow {m3/s}
  ,                                       !- Cooling Minimum Air Flow Fraction
  DesignDay,                              !- Heating Design Air Flow Method
  ,                                       !- Heating Design Air Flow Rate {m3/s}
  ,                                       !- Heating Maximum Air Flow per Zone Floor Area {m3/s-m2}
  ,                                       !- Heating Maximum Air Flow {m3/s}
  ,                                       !- Heating Maximum Air Flow Fraction
  No,                                     !- Account for Dedicated Outdoor Air System
  NeutralSupplyAir,                       !- Dedicated Outdoor Air System Control Strategy
  autosize,                               !- Dedicated Outdoor Air Low Setpoint Temperature for Design {C}
  autosize,                               !- Dedicated Outdoor Air High Setpoint Temperature for Design {C}
  Sensible Load Only No Latent Load,      !- Zone Load Sizing Method
  HumidityRatioDifference,                !- Zone Latent Cooling Design Supply Air Humidity Ratio Input Method
  ,                                       !- Zone Dehumidification Design Supply Air Humidity Ratio {kgWater/kgDryAir}
  0.005,                                  !- Zone Cooling Design Supply Air Humidity Ratio Difference {kgWater/kgDryAir}
  HumidityRatioDifference,                !- Zone Latent Heating Design Supply Air Humidity Ratio Input Method
  ,                                       !- Zone Humidification Design Supply Air Humidity Ratio {kgWater/kgDryAir}
  0.005,                                  !- Zone Humidification Design Supply Air Humidity Ratio Difference {kgWater/kgDryAir}
  ,                                       !- Zone Humidistat Dehumidification Set Point Schedule Name
  ,                                       !- Zone Humidistat Humidification Set Point Schedule Name
  ,                                       !- Design Zone Air Distribution Effectiveness in Cooling Mode
  ,                                       !- Design Zone Air Distribution Effectiveness in Heating Mode
  ,                                       !- Design Zone Secondary Recirculation Fraction {dimensionless}
  ,                                       !- Design Minimum Zone Ventilation Efficiency {dimensionless}
  Coincident;                             !- Sizing Option

OS:ZoneHVAC:EquipmentList,
  {cd7056c3-6bd2-4315-af57-e79aedfafa58}, !- Handle
  Zone HVAC Equipment List 1,             !- Name
  {0bd720d0-7492-4b45-bac2-0a68997e2ba2}, !- Thermal Zone
  ,                                       !- Load Distribution Scheme
  {842029e0-9434-4e4d-8212-d3955c103e1b}, !- Zone Equipment 1
  1,                                      !- Zone Equipment Cooling Sequence 1
  1,                                      !- Zone Equipment Heating or No-Load Sequence 1
  {39917798-4545-4595-8e97-2947ec044879}, !- Zone Equipment Sequential Cooling Fraction Schedule Name 1
  {aa60ef0f-fff3-4e1c-b9e5-abbb548c0252}, !- Zone Equipment Sequential Heating Fraction Schedule Name 1
  {8c9fba8d-64a5-466b-a563-d3920a071f83}, !- Zone Equipment 2
  2,                                      !- Zone Equipment Cooling Sequence 2
  2,                                      !- Zone Equipment Heating or No-Load Sequence 2
  {ea529415-9966-4f3d-8766-21f2d88005f1}, !- Zone Equipment Sequential Cooling Fraction Schedule Name 2
  {70d7312c-2194-496a-a77b-88d58ad2fc31}; !- Zone Equipment Sequential Heating Fraction Schedule Name 2

OS:AdditionalProperties,
  {cdfab624-da93-43e1-86b1-5af4badcd2bd}, !- Handle
  {0bd720d0-7492-4b45-bac2-0a68997e2ba2}, !- Object Name
  ObjectType,                             !- Feature Name 1
  String,                                 !- Feature Data Type 1
  conditioned space;                      !- Feature Value 1

OS:Space,
  {afd11041-22ea-44cb-9f1a-50136074cc83}, !- Handle
  conditioned space 1,                    !- Name
  ,                                       !- Space Type Name
  ,                                       !- Default Construction Set Name
  ,                                       !- Default Schedule Set Name
  ,                                       !- Direction of Relative North {deg}
  ,                                       !- X Origin {m}
  ,                                       !- Y Origin {m}
  ,                                       !- Z Origin {m}
  ,                                       !- Building Story Name
  {0bd720d0-7492-4b45-bac2-0a68997e2ba2}, !- Thermal Zone Name
  ,                                       !- Part of Total Floor Area
  ,                                       !- Design Specification Outdoor Air Object Name
  ,                                       !- Building Unit Name
  692.06373070848;                        !- Volume {m3}

OS:Schedule:Ruleset,
  {d2b5e76f-e382-4cab-9389-815286e7fb63}, !- Handle
  heating setpoint,                       !- Name
  {ad5da14e-68f7-4b1c-ab7b-567658167bbb}, !- Schedule Type Limits Name
  {cb48a276-0a18-4464-ac33-fa36265b5357}; !- Default Day Schedule Name

OS:Schedule:Day,
  {cb48a276-0a18-4464-ac33-fa36265b5357}, !- Handle
  heating setpoint default day,           !- Name
  {ad5da14e-68f7-4b1c-ab7b-567658167bbb}, !- Schedule Type Limits Name
  ,                                       !- Interpolate to Timestep
  24,                                     !- Hour 1
  0,                                      !- Minute 1
  0;                                      !- Value Until Time 1

OS:Schedule:Rule,
  {5164c513-4925-4b3b-a5db-73182bae9713}, !- Handle
  heating setpoint allday rule,           !- Name
  {d2b5e76f-e382-4cab-9389-815286e7fb63}, !- Schedule Ruleset Name
  0,                                      !- Rule Order
  {2d1f5840-7815-4cf6-948e-e24af90ef698}, !- Day Schedule Name
  Yes,                                    !- Apply Sunday
  Yes,                                    !- Apply Monday
  Yes,                                    !- Apply Tuesday
  Yes,                                    !- Apply Wednesday
  Yes,                                    !- Apply Thursday
  Yes,                                    !- Apply Friday
  Yes,                                    !- Apply Saturday
  DateRange,                              !- Date Specification Type
  1,                                      !- Start Month
  1,                                      !- Start Day
  12,                                     !- End Month
  31;                                     !- End Day

OS:Schedule:Day,
  {2d1f5840-7815-4cf6-948e-e24af90ef698}, !- Handle
  heating setpoint day,                   !- Name
  {ad5da14e-68f7-4b1c-ab7b-567658167bbb}, !- Schedule Type Limits Name
  ,                                       !- Interpolate to Timestep
  24,                                     !- Hour 1
  0,                                      !- Minute 1
  20;                                     !- Value Until Time 1

OS:Schedule:Ruleset,
  {64717d1a-86f5-4917-a746-48fc1abcbe44}, !- Handle
  cooling setpoint,                       !- Name
  {ad5da14e-68f7-4b1c-ab7b-567658167bbb}, !- Schedule Type Limits Name
  {5b2c00fd-d358-45c6-942b-0adc9bb086a4}; !- Default Day Schedule Name

OS:Schedule:Day,
  {5b2c00fd-d358-45c6-942b-0adc9bb086a4}, !- Handle
  cooling setpoint default day,           !- Name
  {ad5da14e-68f7-4b1c-ab7b-567658167bbb}, !- Schedule Type Limits Name
  ,                                       !- Interpolate to Timestep
  24,                                     !- Hour 1
  0,                                      !- Minute 1
  0;                                      !- Value Until Time 1

OS:Schedule:Rule,
  {9e3b9b75-c41a-4688-bbf4-d41d723d24ae}, !- Handle
  cooling setpoint allday rule,           !- Name
  {64717d1a-86f5-4917-a746-48fc1abcbe44}, !- Schedule Ruleset Name
  0,                                      !- Rule Order
  {d6d5b90a-9574-49ed-b0b1-7ade84e0829d}, !- Day Schedule Name
  Yes,                                    !- Apply Sunday
  Yes,                                    !- Apply Monday
  Yes,                                    !- Apply Tuesday
  Yes,                                    !- Apply Wednesday
  Yes,                                    !- Apply Thursday
  Yes,                                    !- Apply Friday
  Yes,                                    !- Apply Saturday
  DateRange,                              !- Date Specification Type
  1,                                      !- Start Month
  1,                                      !- Start Day
  12,                                     !- End Month
  31;                                     !- End Day

OS:Schedule:Day,
  {d6d5b90a-9574-49ed-b0b1-7ade84e0829d}, !- Handle
  cooling setpoint day,                   !- Name
  {ad5da14e-68f7-4b1c-ab7b-567658167bbb}, !- Schedule Type Limits Name
  ,                                       !- Interpolate to Timestep
  24,                                     !- Hour 1
  0,                                      !- Minute 1
  25.5555555555556;                       !- Value Until Time 1

OS:ThermostatSetpoint:DualSetpoint,
  {c563113b-9f76-46e4-9489-34563bf82bdc}, !- Handle
  conditioned space temperature setpoint, !- Name
  {d2b5e76f-e382-4cab-9389-815286e7fb63}, !- Heating Setpoint Temperature Schedule Name
  {64717d1a-86f5-4917-a746-48fc1abcbe44}, !- Cooling Setpoint Temperature Schedule Name
  0;                                      !- Temperature Difference Between Cutout And Setpoint {deltaC}

OS:ScheduleTypeLimits,
  {ad5da14e-68f7-4b1c-ab7b-567658167bbb}, !- Handle
  Temperature,                            !- Name
  ,                                       !- Lower Limit Value
  ,                                       !- Upper Limit Value
  Continuous,                             !- Numeric Type
  Temperature;                            !- Unit Type

OS:Surface,
  {94ef74e3-c72d-4fe9-bc67-ba00ea030cc2}, !- Handle
  Roof1,                                  !- Name
  RoofCeiling,                            !- Surface Type
  {4dc7ff88-2a10-4483-832d-3fae6d02c629}, !- Construction Name
  {cdc67d53-66d8-456b-ab5f-75094bff4ab6}, !- Space Name
  Outdoors,                               !- Outside Boundary Condition
  ,                                       !- Outside Boundary Condition Object
  SunExposed,                             !- Sun Exposure
  WindExposed,                            !- Wind Exposure
  ,                                       !- View Factor to Ground
  ,                                       !- Number of Vertices
  -26.9347048849634, 58.0557891618865, 2.4384, !- X,Y,Z Vertex 1 {m}
  -26.9347048849634, 46.7895631136661, 8.0715130241102, !- X,Y,Z Vertex 2 {m}
  -14.3386812381136, 46.7895631136661, 8.0715130241102, !- X,Y,Z Vertex 3 {m}
  -14.3386812381136, 58.0557891618865, 2.4384; !- X,Y,Z Vertex 4 {m}

OS:AdditionalProperties,
  {d13b6e1a-a2d6-46e1-837c-565c403ad948}, !- Handle
  {94ef74e3-c72d-4fe9-bc67-ba00ea030cc2}, !- Object Name
  Length,                                 !- Feature Name 1
  Double,                                 !- Feature Data Type 1
  41.325536899113608,                     !- Feature Value 1
  Width,                                  !- Feature Name 2
  Double,                                 !- Feature Data Type 2
  41.325536899113601,                     !- Feature Value 2
  Azimuth,                                !- Feature Name 3
  Integer,                                !- Feature Data Type 3
  0,                                      !- Feature Value 3
  Tilt,                                   !- Feature Name 4
  Double,                                 !- Feature Data Type 4
  0.5,                                    !- Feature Value 4
  SurfaceType,                            !- Feature Name 5
  String,                                 !- Feature Data Type 5
  Roof;                                   !- Feature Value 5

OS:ThermalZone,
  {2b6929df-8491-41c1-9dd0-ef3bac64b41b}, !- Handle
  attic - vented,                         !- Name
  1,                                      !- Multiplier
  ,                                       !- Ceiling Height {m}
  356.389957095237,                       !- Volume {m3}
  ,                                       !- Floor Area {m2}
  ,                                       !- Zone Inside Convection Algorithm
  ,                                       !- Zone Outside Convection Algorithm
  ,                                       !- Zone Conditioning Equipment List Name
  {b7604b15-ac7c-4158-80e4-ea3a2edc0e75}, !- Zone Air Inlet Port List
  {f732086b-2b20-41ac-a4c2-1314a74029e7}, !- Zone Air Exhaust Port List
  {8380dfc4-7ff1-40c6-9504-90abb72baaa8}, !- Zone Air Node Name
  {7955369f-9cd3-43fe-abe3-66f8fb4b4922}, !- Zone Return Air Port List
  ,                                       !- Primary Daylighting Control Name
  ,                                       !- Fraction of Zone Controlled by Primary Daylighting Control
  ,                                       !- Secondary Daylighting Control Name
  ,                                       !- Fraction of Zone Controlled by Secondary Daylighting Control
  ,                                       !- Illuminance Map Name
  ,                                       !- Group Rendering Name
  ,                                       !- Thermostat Name
  No;                                     !- Use Ideal Air Loads

OS:Node,
  {fea02539-b283-4a7c-827d-5bf000888ba8}, !- Handle
  Node 2,                                 !- Name
  {8380dfc4-7ff1-40c6-9504-90abb72baaa8}, !- Inlet Port
  ;                                       !- Outlet Port

OS:Connection,
  {8380dfc4-7ff1-40c6-9504-90abb72baaa8}, !- Handle
  {2b6929df-8491-41c1-9dd0-ef3bac64b41b}, !- Source Object
  11,                                     !- Outlet Port
  {fea02539-b283-4a7c-827d-5bf000888ba8}, !- Target Object
  2;                                      !- Inlet Port

OS:PortList,
  {b7604b15-ac7c-4158-80e4-ea3a2edc0e75}, !- Handle
  {2b6929df-8491-41c1-9dd0-ef3bac64b41b}; !- HVAC Component

OS:PortList,
  {f732086b-2b20-41ac-a4c2-1314a74029e7}, !- Handle
  {2b6929df-8491-41c1-9dd0-ef3bac64b41b}; !- HVAC Component

OS:PortList,
  {7955369f-9cd3-43fe-abe3-66f8fb4b4922}, !- Handle
  {2b6929df-8491-41c1-9dd0-ef3bac64b41b}; !- HVAC Component

OS:Sizing:Zone,
  {9bae8a61-8752-4dcf-a74d-a2a6a372fd3b}, !- Handle
  {2b6929df-8491-41c1-9dd0-ef3bac64b41b}, !- Zone or ZoneList Name
  SupplyAirTemperature,                   !- Zone Cooling Design Supply Air Temperature Input Method
  14,                                     !- Zone Cooling Design Supply Air Temperature {C}
  11.11,                                  !- Zone Cooling Design Supply Air Temperature Difference {deltaC}
  SupplyAirTemperature,                   !- Zone Heating Design Supply Air Temperature Input Method
  40,                                     !- Zone Heating Design Supply Air Temperature {C}
  11.11,                                  !- Zone Heating Design Supply Air Temperature Difference {deltaC}
  0.0085,                                 !- Zone Cooling Design Supply Air Humidity Ratio {kg-H2O/kg-air}
  0.008,                                  !- Zone Heating Design Supply Air Humidity Ratio {kg-H2O/kg-air}
  ,                                       !- Zone Heating Sizing Factor
  ,                                       !- Zone Cooling Sizing Factor
  DesignDay,                              !- Cooling Design Air Flow Method
  ,                                       !- Cooling Design Air Flow Rate {m3/s}
  ,                                       !- Cooling Minimum Air Flow per Zone Floor Area {m3/s-m2}
  ,                                       !- Cooling Minimum Air Flow {m3/s}
  ,                                       !- Cooling Minimum Air Flow Fraction
  DesignDay,                              !- Heating Design Air Flow Method
  ,                                       !- Heating Design Air Flow Rate {m3/s}
  ,                                       !- Heating Maximum Air Flow per Zone Floor Area {m3/s-m2}
  ,                                       !- Heating Maximum Air Flow {m3/s}
  ,                                       !- Heating Maximum Air Flow Fraction
  No,                                     !- Account for Dedicated Outdoor Air System
  NeutralSupplyAir,                       !- Dedicated Outdoor Air System Control Strategy
  autosize,                               !- Dedicated Outdoor Air Low Setpoint Temperature for Design {C}
  autosize,                               !- Dedicated Outdoor Air High Setpoint Temperature for Design {C}
  Sensible Load Only No Latent Load,      !- Zone Load Sizing Method
  HumidityRatioDifference,                !- Zone Latent Cooling Design Supply Air Humidity Ratio Input Method
  ,                                       !- Zone Dehumidification Design Supply Air Humidity Ratio {kgWater/kgDryAir}
  0.005,                                  !- Zone Cooling Design Supply Air Humidity Ratio Difference {kgWater/kgDryAir}
  HumidityRatioDifference,                !- Zone Latent Heating Design Supply Air Humidity Ratio Input Method
  ,                                       !- Zone Humidification Design Supply Air Humidity Ratio {kgWater/kgDryAir}
  0.005,                                  !- Zone Humidification Design Supply Air Humidity Ratio Difference {kgWater/kgDryAir}
  ,                                       !- Zone Humidistat Dehumidification Set Point Schedule Name
  ,                                       !- Zone Humidistat Humidification Set Point Schedule Name
  ,                                       !- Design Zone Air Distribution Effectiveness in Cooling Mode
  ,                                       !- Design Zone Air Distribution Effectiveness in Heating Mode
  ,                                       !- Design Zone Secondary Recirculation Fraction {dimensionless}
  ,                                       !- Design Minimum Zone Ventilation Efficiency {dimensionless}
  Coincident;                             !- Sizing Option

OS:ZoneHVAC:EquipmentList,
  {0589faa1-8240-4248-b907-a4d4ab9d7d39}, !- Handle
  Zone HVAC Equipment List 2,             !- Name
  {2b6929df-8491-41c1-9dd0-ef3bac64b41b}; !- Thermal Zone

OS:AdditionalProperties,
  {d74a2c9c-786b-492d-aa15-7669d384a4f8}, !- Handle
  {2b6929df-8491-41c1-9dd0-ef3bac64b41b}, !- Object Name
  ObjectType,                             !- Feature Name 1
  String,                                 !- Feature Data Type 1
  attic - vented;                         !- Feature Value 1

OS:Space,
  {cdc67d53-66d8-456b-ab5f-75094bff4ab6}, !- Handle
  attic - vented 1,                       !- Name
  ,                                       !- Space Type Name
  ,                                       !- Default Construction Set Name
  ,                                       !- Default Schedule Set Name
  ,                                       !- Direction of Relative North {deg}
  ,                                       !- X Origin {m}
  ,                                       !- Y Origin {m}
  ,                                       !- Z Origin {m}
  ,                                       !- Building Story Name
  {2b6929df-8491-41c1-9dd0-ef3bac64b41b}, !- Thermal Zone Name
  ,                                       !- Part of Total Floor Area
  ,                                       !- Design Specification Outdoor Air Object Name
  ,                                       !- Building Unit Name
  356.389957095237;                       !- Volume {m3}

OS:Material,
  {9c031e29-2362-49bc-a9c0-9bd416711e06}, !- Handle
  asphalt or fiberglass shingles,         !- Name