
OS:Version,
  {eb957031-346c-406b-b7b5-788370f67e42}, !- Handle
  3.9.0;                                  !- Version Identifier

OS:SimulationControl,
  {1e00d50c-63a8-4c11-86c3-66827b7930c9}, !- Handle
  ,                                       !- Do Zone Sizing Calculation
  ,                                       !- Do System Sizing Calculation
  ,                                       !- Do Plant Sizing Calculation
  No;                                     !- Run Simulation for Sizing Periods

OS:Timestep,
  {bae4d7b9-9baa-4d4b-bb82-da218959ca5a}, !- Handle
  1;                                      !- Number of Timesteps per Hour

OS:ShadowCalculation,
  {65856996-7e33-47dc-aff2-c8a5d9783cfc}, !- Handle
  PolygonClipping,                        !- Shading Calculation Method
  ,                                       !- Shading Calculation Update Frequency Method
  20,                                     !- Shading Calculation Update Frequency
  200,                                    !- Maximum Figures in Shadow Overlap Calculations
  ,                                       !- Polygon Clipping Algorithm
  512,                                    !- Pixel Counting Resolution
  ,                                       !- Sky Diffuse Modeling Algorithm
  No,                                     !- Output External Shading Calculation Results
  No,                                     !- Disable Self-Shading Within Shading Zone Groups
  No;                                     !- Disable Self-Shading From Shading Zone Groups to Other Zones

OS:SurfaceConvectionAlgorithm:Outside,
  {b2f38c9f-c716-4b72-8670-c5606cf17044}, !- Handle
  DOE-2;                                  !- Algorithm

OS:SurfaceConvectionAlgorithm:Inside,
  {567e573a-ca0e-481b-bead-bad4173ef04a}, !- Handle
  TARP;                                   !- Algorithm

OS:ZoneCapacitanceMultiplier:ResearchSpecial,
  {2cfcc919-a958-4e63-8e68-ee6eec47c450}, !- Handle
  7,                                      !- Temperature Capacity Multiplier
  15,                                     !- Humidity Capacity Multiplier
  ;                                       !- Carbon Dioxide Capacity Multiplier

OS:ConvergenceLimits,
  {67a1306e-51c4-47d5-8b97-36dbb5b6d308}, !- Handle
  0;                                      !- Minimum System Timestep {minutes}

OS:RunPeriod,
  {96fa9f07-b0eb-4de7-83c8-7ed548b07340}, !- Handle
  Run Period 1,                           !- Name
  1,                                      !- Begin Month
  1,                                      !- Begin Day of Month
  12,                                     !- End Month
  31,                                     !- End Day of Month
  ,                                       !- Use Weather File Holidays and Special Days
  ,                                       !- Use Weather File Daylight Saving Period
  ,                                       !- Apply Weekend Holiday Rule
  ,                                       !- Use Weather File Rain Indicators
  ,                                       !- Use Weather File Snow Indicators
  ;                                       !- Number of Times Runperiod to be Repeated

OS:PerformancePrecisionTradeoffs,
  {518ec22a-b8bd-4559-b3e3-618b84419e30}, !- Handle
  ,                                       !- Use Coil Direct Solutions
  CarrollMRT;                             !- Zone Radiant Exchange Algorithm

OS:WeatherFile,
  {a3dadaf6-f279-44ee-a364-54905929559b}, !- Handle
  Buffalo Niagara Intl Ap,                !- City
  NY,                                     !- State Province Region
  USA,                                    !- Country
  TMY3,                                   !- Data Source
  725280,                                 !- WMO Number
  42.93,                                  !- Latitude {deg}
  -78.73,                                 !- Longitude {deg}
  -5,                                     !- Time Zone {hr}
  215,                                    !- Elevation {m}
  /Users/nmoore/github/urbanopt-example-geojson-project/example_project/weather/USA_NY_Buffalo-Greater.Buffalo.Intl.AP.725280_TMY3.epw, !- Url
  6B50E0FF,                               !- Checksum
  ,                                       !- Start Date Actual Year
  Sunday;                                 !- Start Day of Week

OS:YearDescription,
  {02c15dd0-9c3a-41d8-87f9-2e9df9ee2637}, !- Handle
  2007,                                   !- Calendar Year
  ,                                       !- Day of Week for Start Day
  ;                                       !- Is Leap Year

OS:Site,
  {4e38fcfd-cd08-4fa3-9b3c-f6461635877b}, !- Handle
  Buffalo Niagara Intl Ap_NY,             !- Name
  42.93,                                  !- Latitude {deg}
  -78.73,                                 !- Longitude {deg}
  -5,                                     !- Time Zone {hr}
  215,                                    !- Elevation {m}
  Suburbs,                                !- Terrain
  Yes;                                    !- Keep Site Location Information

OS:RunPeriodControl:DaylightSavingTime,
  {1d6ba8ab-1612-44da-8c36-4a48d6319f5e}, !- Handle
  Mar 12,                                 !- Start Date
  Nov 5;                                  !- End Date

OS:Site:GroundTemperature:Shallow,
  {0198353c-67a4-46a8-bd6e-e0cecbb50336}, !- Handle
  4.30207395723828,                       !- January Surface Ground Temperature {C}
  2.29327249652502,                       !- February Surface Ground Temperature {C}
  2.13240047156047,                       !- March Surface Ground Temperature {C}
  3.08567940719286,                       !- April Surface Ground Temperature {C}
  6.91256312497526,                       !- May Surface Ground Temperature {C}
  10.7216195949507,                       !- June Surface Ground Temperature {C}
  14.0238679822574,                       !- July Surface Ground Temperature {C}
  16.1157611184724,                       !- August Surface Ground Temperature {C}
  16.2934789303462,                       !- September Surface Ground Temperature {C}
  14.5920754632847,                       !- October Surface Ground Temperature {C}
  11.374036348653,                        !- November Surface Ground Temperature {C}
  7.68182621661674;                       !- December Surface Ground Temperature {C}

OS:ThermalZone,
  {9191d619-a503-464f-8a72-df3c3fdd9611}, !- Handle
  conditioned space,                      !- Name
  1,                                      !- Multiplier
  ,                                       !- Ceiling Height {m}
  692.06373070848,                        !- Volume {m3}
  ,                                       !- Floor Area {m2}
  ,                                       !- Zone Inside Convection Algorithm
  ,                                       !- Zone Outside Convection Algorithm
  ,                                       !- Zone Conditioning Equipment List Name
  {f7faba09-e764-40b8-9267-f37fd13c7470}, !- Zone Air Inlet Port List
  {d550008b-a877-4250-ad99-06883f6b9d3f}, !- Zone Air Exhaust Port List
  {e950b5e5-2078-4585-91f6-ac186e73bde7}, !- Zone Air Node Name
  {9edf65de-76e6-4585-87e4-5dda0795008b}, !- Zone Return Air Port List
  ,                                       !- Primary Daylighting Control Name
  ,                                       !- Fraction of Zone Controlled by Primary Daylighting Control
  ,                                       !- Secondary Daylighting Control Name
  ,                                       !- Fraction of Zone Controlled by Secondary Daylighting Control
  ,                                       !- Illuminance Map Name
  ,                                       !- Group Rendering Name
  {7a1544b2-0890-42af-9705-899801b87ed5}, !- Thermostat Name
  No;                                     !- Use Ideal Air Loads

OS:Node,
  {0dba6c2c-73bb-4a08-ae47-422b2bd18d6a}, !- Handle
  Node 1,                                 !- Name
  {e950b5e5-2078-4585-91f6-ac186e73bde7}, !- Inlet Port
  ;                                       !- Outlet Port

OS:Connection,
  {e950b5e5-2078-4585-91f6-ac186e73bde7}, !- Handle
  {9191d619-a503-464f-8a72-df3c3fdd9611}, !- Source Object
  11,                                     !- Outlet Port
  {0dba6c2c-73bb-4a08-ae47-422b2bd18d6a}, !- Target Object
  2;                                      !- Inlet Port

OS:PortList,
  {f7faba09-e764-40b8-9267-f37fd13c7470}, !- Handle
  {9191d619-a503-464f-8a72-df3c3fdd9611}, !- HVAC Component
  {fd4b731e-93c0-48f0-a526-86da2542cb21}, !- Port 1
  {99e74fcd-9a3d-4f1e-9513-138f27fa7eb3}; !- Port 2

OS:PortList,
  {d550008b-a877-4250-ad99-06883f6b9d3f}, !- Handle
  {9191d619-a503-464f-8a72-df3c3fdd9611}; !- HVAC Component

OS:PortList,
  {9edf65de-76e6-4585-87e4-5dda0795008b}, !- Handle
  {9191d619-a503-464f-8a72-df3c3fdd9611}, !- HVAC Component
  {00913bba-9438-4212-9971-5befc8b88271}, !- Port 1
  {da5934b2-bbec-4713-a2be-8312c22a7803}; !- Port 2

OS:Sizing:Zone,
  {c272a726-2737-466d-9f12-e9a4ea1355e6}, !- Handle
  {9191d619-a503-464f-8a72-df3c3fdd9611}, !- Zone or ZoneList Name
  SupplyAirTemperature,                   !- Zone Cooling Design Supply Air Temperature Input Method
  14,                                     !- Zone Cooling Design Supply Air Temperature {C}
  11.11,                                  !- Zone Cooling Design Supply Air Temperature Difference {deltaC}
  SupplyAirTemperature,                   !- Zone Heating Design Supply Air Temperature Input Method
  40,                                     !- Zone Heating Design Supply Air Temperature {C}
  11.11,                                  !- Zone Heating Design Supply Air Temperature Difference {deltaC}
  0.0085,                                 !- Zone Cooling Design Supply Air Humidity Ratio {kg-H2O/kg-air}
  0.008,                                  !- Zone Heating Design Supply Air Humidity Ratio {kg-H2O/kg-air}
  ,                                       !- Zone Heating Sizing Factor
  ,                                       !- Zone Cooling Sizing Factor
  DesignDay,                              !- Cooling Design Air Flow Method
  ,                                       !- Cooling Design Air Flow Rate {m3/s}
  ,                                       !- Cooling Minimum Air Flow per Zone Floor Area {m3/s-m2}
  ,                                       !- Cooling Minimum Air Flow {m3/s}
  ,                                       !- Cooling Minimum Air Flow Fraction
  DesignDay,                              !- Heating Design Air Flow Method
  ,                                       !- Heating Design Air Flow Rate {m3/s}
  ,                                       !- Heating Maximum Air Flow per Zone Floor Area {m3/s-m2}
  ,                                       !- Heating Maximum Air Flow {m3/s}
  ,                                       !- Heating Maximum Air Flow Fraction
  No,                                     !- Account for Dedicated Outdoor Air System
  NeutralSupplyAir,                       !- Dedicated Outdoor Air System Control Strategy
  autosize,                               !- Dedicated Outdoor Air Low Setpoint Temperature for Design {C}
  autosize,                               !- Dedicated Outdoor Air High Setpoint Temperature for Design {C}
  Sensible Load Only No Latent Load,      !- Zone Load Sizing Method
  HumidityRatioDifference,                !- Zone Latent Cooling Design Supply Air Humidity Ratio Input Method
  ,                                       !- Zone Dehumidification Design Supply Air Humidity Ratio {kgWater/kgDryAir}
  0.005,                                  !- Zone Cooling Design Supply Air Humidity Ratio Difference {kgWater/kgDryAir}
  HumidityRatioDifference,                !- Zone Latent Heating Design Supply Air Humidity Ratio Input Method
  ,                                       !- Zone Humidification Design Supply Air Humidity Ratio {kgWater/kgDryAir}
  0.005,                                  !- Zone Humidification Design Supply Air Humidity Ratio Difference {kgWater/kgDryAir}
  ,                                       !- Zone Humidistat Dehumidification Set Point Schedule Name
  ,                                       !- Zone Humidistat Humidification Set Point Schedule Name
  ,                                       !- Design Zone Air Distribution Effectiveness in Cooling Mode
  ,                                       !- Design Zone Air Distribution Effectiveness in Heating Mode
  ,                                       !- Design Zone Secondary Recirculation Fraction {dimensionless}
  ,                                       !- Design Minimum Zone Ventilation Efficiency {dimensionless}
  Coincident;                             !- Sizing Option

OS:ZoneHVAC:EquipmentList,
  {b1786393-a575-4a2d-9bb4-33c013a47752}, !- Handle
  Zone HVAC Equipment List 1,             !- Name
  {9191d619-a503-464f-8a72-df3c3fdd9611}, !- Thermal Zone
  ,                                       !- Load Distribution Scheme
  {233c5f7b-2489-46bd-bdae-082076127021}, !- Zone Equipment 1
  1,                                      !- Zone Equipment Cooling Sequence 1
  1,                                      !- Zone Equipment Heating or No-Load Sequence 1
  {1d6f50fd-e853-46c4-a1d6-c6474f38a19c}, !- Zone Equipment Sequential Cooling Fraction Schedule Name 1
  {dea31569-cefb-4589-a70c-c4a98375e716}, !- Zone Equipment Sequential Heating Fraction Schedule Name 1
  {75c41d85-c27a-4b07-8e1a-c5607591daad}, !- Zone Equipment 2
  2,                                      !- Zone Equipment Cooling Sequence 2
  2,                                      !- Zone Equipment Heating or No-Load Sequence 2
  {12884a33-ee4a-4776-8261-6bee5e5fed93}, !- Zone Equipment Sequential Cooling Fraction Schedule Name 2
  {13b58c9a-1320-44f7-8aea-a70cc9884689}; !- Zone Equipment Sequential Heating Fraction Schedule Name 2

OS:AdditionalProperties,
  {987b9d9b-788b-4c67-8104-62c420378c64}, !- Handle
  {9191d619-a503-464f-8a72-df3c3fdd9611}, !- Object Name
  ObjectType,                             !- Feature Name 1
  String,                                 !- Feature Data Type 1
  conditioned space;                      !- Feature Value 1

OS:Space,
  {8b6f52c7-d1b9-43ac-8816-a81b670ebc7e}, !- Handle
  conditioned space 1,                    !- Name
  ,                                       !- Space Type Name
  ,                                       !- Default Construction Set Name
  ,                                       !- Default Schedule Set Name
  ,                                       !- Direction of Relative North {deg}
  ,                                       !- X Origin {m}
  ,                                       !- Y Origin {m}
  ,                                       !- Z Origin {m}
  ,                                       !- Building Story Name
  {9191d619-a503-464f-8a72-df3c3fdd9611}, !- Thermal Zone Name
  ,                                       !- Part of Total Floor Area
  ,                                       !- Design Specification Outdoor Air Object Name
  ,                                       !- Building Unit Name
  692.06373070848;                        !- Volume {m3}

OS:Schedule:Ruleset,
  {ba4ab452-f32e-4123-b498-f9866bb0ae5a}, !- Handle
  heating setpoint,                       !- Name
  {12c5c66a-f033-4e2c-bb2e-6a6fc18d4d5b}, !- Schedule Type Limits Name
  {c2f5f2ce-e9d7-4061-a89e-90f07175699f}; !- Default Day Schedule Name

OS:Schedule:Day,
  {c2f5f2ce-e9d7-4061-a89e-90f07175699f}, !- Handle
  heating setpoint default day,           !- Name
  {12c5c66a-f033-4e2c-bb2e-6a6fc18d4d5b}, !- Schedule Type Limits Name
  ,                                       !- Interpolate to Timestep
  24,                                     !- Hour 1
  0,                                      !- Minute 1
  0;                                      !- Value Until Time 1

OS:Schedule:Rule,
  {e21fca7f-c1b1-463c-8fcf-467ea3096db7}, !- Handle
  heating setpoint allday rule,           !- Name
  {ba4ab452-f32e-4123-b498-f9866bb0ae5a}, !- Schedule Ruleset Name
  0,                                      !- Rule Order
  {863621f9-8963-4963-9b87-4dbca4702986}, !- Day Schedule Name
  Yes,                                    !- Apply Sunday
  Yes,                                    !- Apply Monday
  Yes,                                    !- Apply Tuesday
  Yes,                                    !- Apply Wednesday
  Yes,                                    !- Apply Thursday
  Yes,                                    !- Apply Friday
  Yes,                                    !- Apply Saturday
  DateRange,                              !- Date Specification Type
  1,                                      !- Start Month
  1,                                      !- Start Day
  12,                                     !- End Month
  31;                                     !- End Day

OS:Schedule:Day,
  {863621f9-8963-4963-9b87-4dbca4702986}, !- Handle
  heating setpoint day,                   !- Name
  {12c5c66a-f033-4e2c-bb2e-6a6fc18d4d5b}, !- Schedule Type Limits Name
  ,                                       !- Interpolate to Timestep
  24,                                     !- Hour 1
  0,                                      !- Minute 1
  20;                                     !- Value Until Time 1

OS:Schedule:Ruleset,
  {155ea36d-b948-46c7-b294-f0b494113c23}, !- Handle
  cooling setpoint,                       !- Name
  {12c5c66a-f033-4e2c-bb2e-6a6fc18d4d5b}, !- Schedule Type Limits Name
  {afd67540-1da9-4a62-b932-11024d58cc4d}; !- Default Day Schedule Name

OS:Schedule:Day,
  {afd67540-1da9-4a62-b932-11024d58cc4d}, !- Handle
  cooling setpoint default day,           !- Name
  {12c5c66a-f033-4e2c-bb2e-6a6fc18d4d5b}, !- Schedule Type Limits Name
  ,                                       !- Interpolate to Timestep
  24,                                     !- Hour 1
  0,                                      !- Minute 1
  0;                                      !- Value Until Time 1

OS:Schedule:Rule,
  {b2b4a927-545a-4cfe-978c-bae229832a10}, !- Handle
  cooling setpoint allday rule,           !- Name
  {155ea36d-b948-46c7-b294-f0b494113c23}, !- Schedule Ruleset Name
  0,                                      !- Rule Order
  {2c4dd2cc-a8bb-4078-b4ea-4c37fa919460}, !- Day Schedule Name
  Yes,                                    !- Apply Sunday
  Yes,                                    !- Apply Monday
  Yes,                                    !- Apply Tuesday
  Yes,                                    !- Apply Wednesday
  Yes,                                    !- Apply Thursday
  Yes,                                    !- Apply Friday
  Yes,                                    !- Apply Saturday
  DateRange,                              !- Date Specification Type
  1,                                      !- Start Month
  1,                                      !- Start Day
  12,                                     !- End Month
  31;                                     !- End Day

OS:Schedule:Day,
  {2c4dd2cc-a8bb-4078-b4ea-4c37fa919460}, !- Handle
  cooling setpoint day,                   !- Name
  {12c5c66a-f033-4e2c-bb2e-6a6fc18d4d5b}, !- Schedule Type Limits Name
  ,                                       !- Interpolate to Timestep
  24,                                     !- Hour 1
  0,                                      !- Minute 1
  25.5555555555556;                       !- Value Until Time 1

OS:ThermostatSetpoint:DualSetpoint,
  {7a1544b2-0890-42af-9705-899801b87ed5}, !- Handle
  conditioned space temperature setpoint, !- Name
  {ba4ab452-f32e-4123-b498-f9866bb0ae5a}, !- Heating Setpoint Temperature Schedule Name
  {155ea36d-b948-46c7-b294-f0b494113c23}, !- Cooling Setpoint Temperature Schedule Name
  0;                                      !- Temperature Difference Between Cutout And Setpoint {deltaC}

OS:ScheduleTypeLimits,
  {12c5c66a-f033-4e2c-bb2e-6a6fc18d4d5b}, !- Handle
  Temperature,                            !- Name
  ,                                       !- Lower Limit Value
  ,                                       !- Upper Limit Value
  Continuous,                             !- Numeric Type
  Temperature;                            !- Unit Type

OS:Surface,
  {597280d3-c7bb-4c36-b6c4-ecab4ff2bb29}, !- Handle
  Roof1,                                  !- Name
  RoofCeiling,                            !- Surface Type
  {8076bbbe-30db-40ab-955a-e08976ed1dca}, !- Construction Name
  {d7ba495d-fe44-4d81-8ad2-be6b009cd767}, !- Space Name
  Outdoors,                               !- Outside Boundary Condition
  ,                                       !- Outside Boundary Condition Object
  SunExposed,                             !- Sun Exposure
  WindExposed,                            !- Wind Exposure
  ,                                       !- View Factor to Ground
  ,                                       !- Number of Vertices
  -26.9347048849634, 58.0557891618865, 2.4384, !- X,Y,Z Vertex 1 {m}
  -26.9347048849634, 46.7895631136661, 8.0715130241102, !- X,Y,Z Vertex 2 {m}
  -14.3386812381136, 46.7895631136661, 8.0715130241102, !- X,Y,Z Vertex 3 {m}
  -14.3386812381136, 58.0557891618865, 2.4384; !- X,Y,Z Vertex 4 {m}

OS:AdditionalProperties,
  {5ac325a5-f277-48f8-9193-fe6b89a976ed}, !- Handle
  {597280d3-c7bb-4c36-b6c4-ecab4ff2bb29}, !- Object Name
  Length,                                 !- Feature Name 1
  Double,                                 !- Feature Data Type 1
  41.325536899113608,                     !- Feature Value 1
  Width,                                  !- Feature Name 2
  Double,                                 !- Feature Data Type 2
  41.325536899113601,                     !- Feature Value 2
  Azimuth,                                !- Feature Name 3
  Integer,                                !- Feature Data Type 3
  0,                                      !- Feature Value 3
  Tilt,                                   !- Feature Name 4
  Double,                                 !- Feature Data Type 4
  0.5,                                    !- Feature Value 4
  SurfaceType,                            !- Feature Name 5
  String,                                 !- Feature Data Type 5
  Roof;                                   !- Feature Value 5

OS:ThermalZone,
  {9d646b39-6f1a-4254-b73e-14fc8be261cf}, !- Handle
  attic - vented,                         !- Name
  1,                                      !- Multiplier
  ,                                       !- Ceiling Height {m}
  356.389957095237,                       !- Volume {m3}
  ,                                       !- Floor Area {m2}
  ,                                       !- Zone Inside Convection Algorithm
  ,                                       !- Zone Outside Convection Algorithm
  ,                                       !- Zone Conditioning Equipment List Name
  {ac0a4450-4a2d-4d5b-bfbe-01e644149f79}, !- Zone Air Inlet Port List
  {82daeb64-992c-48e5-972f-ce9ae4544698}, !- Zone Air Exhaust Port List
  {9d87ce7f-0512-444a-91fb-9ff8ceb47664}, !- Zone Air Node Name
  {959da84a-7126-4547-8f5f-e76d2786bc3e}, !- Zone Return Air Port List
  ,                                       !- Primary Daylighting Control Name
  ,                                       !- Fraction of Zone Controlled by Primary Daylighting Control
  ,                                       !- Secondary Daylighting Control Name
  ,                                       !- Fraction of Zone Controlled by Secondary Daylighting Control
  ,                                       !- Illuminance Map Name
  ,                                       !- Group Rendering Name
  ,                                       !- Thermostat Name
  No;                                     !- Use Ideal Air Loads

OS:Node,
  {ee23d971-2073-4748-840f-692210805954}, !- Handle
  Node 2,                                 !- Name
  {9d87ce7f-0512-444a-91fb-9ff8ceb47664}, !- Inlet Port
  ;                                       !- Outlet Port

OS:Connection,
  {9d87ce7f-0512-444a-91fb-9ff8ceb47664}, !- Handle
  {9d646b39-6f1a-4254-b73e-14fc8be261cf}, !- Source Object
  11,                                     !- Outlet Port
  {ee23d971-2073-4748-840f-692210805954}, !- Target Object
  2;                                      !- Inlet Port

OS:PortList,
  {ac0a4450-4a2d-4d5b-bfbe-01e644149f79}, !- Handle
  {9d646b39-6f1a-4254-b73e-14fc8be261cf}; !- HVAC Component

OS:PortList,
  {82daeb64-992c-48e5-972f-ce9ae4544698}, !- Handle
  {9d646b39-6f1a-4254-b73e-14fc8be261cf}; !- HVAC Component

OS:PortList,
  {959da84a-7126-4547-8f5f-e76d2786bc3e}, !- Handle
  {9d646b39-6f1a-4254-b73e-14fc8be261cf}; !- HVAC Component

OS:Sizing:Zone,
  {44cd95c2-ed01-48bd-9bac-ffa5a3a8c2e0}, !- Handle
  {9d646b39-6f1a-4254-b73e-14fc8be261cf}, !- Zone or ZoneList Name
  SupplyAirTemperature,                   !- Zone Cooling Design Supply Air Temperature Input Method
  14,                                     !- Zone Cooling Design Supply Air Temperature {C}
  11.11,                                  !- Zone Cooling Design Supply Air Temperature Difference {deltaC}
  SupplyAirTemperature,                   !- Zone Heating Design Supply Air Temperature Input Method
  40,                                     !- Zone Heating Design Supply Air Temperature {C}
  11.11,                                  !- Zone Heating Design Supply Air Temperature Difference {deltaC}
  0.0085,                                 !- Zone Cooling Design Supply Air Humidity Ratio {kg-H2O/kg-air}
  0.008,                                  !- Zone Heating Design Supply Air Humidity Ratio {kg-H2O/kg-air}
  ,                                       !- Zone Heating Sizing Factor
  ,                                       !- Zone Cooling Sizing Factor
  DesignDay,                              !- Cooling Design Air Flow Method
  ,                                       !- Cooling Design Air Flow Rate {m3/s}
  ,                                       !- Cooling Minimum Air Flow per Zone Floor Area {m3/s-m2}
  ,                                       !- Cooling Minimum Air Flow {m3/s}
  ,                                       !- Cooling Minimum Air Flow Fraction
  DesignDay,                              !- Heating Design Air Flow Method
  ,                                       !- Heating Design Air Flow Rate {m3/s}
  ,                                       !- Heating Maximum Air Flow per Zone Floor Area {m3/s-m2}
  ,                                       !- Heating Maximum Air Flow {m3/s}
  ,                                       !- Heating Maximum Air Flow Fraction
  No,                                     !- Account for Dedicated Outdoor Air System
  NeutralSupplyAir,                       !- Dedicated Outdoor Air System Control Strategy
  autosize,                               !- Dedicated Outdoor Air Low Setpoint Temperature for Design {C}
  autosize,                               !- Dedicated Outdoor Air High Setpoint Temperature for Design {C}
  Sensible Load Only No Latent Load,      !- Zone Load Sizing Method
  HumidityRatioDifference,                !- Zone Latent Cooling Design Supply Air Humidity Ratio Input Method
  ,                                       !- Zone Dehumidification Design Supply Air Humidity Ratio {kgWater/kgDryAir}
  0.005,                                  !- Zone Cooling Design Supply Air Humidity Ratio Difference {kgWater/kgDryAir}
  HumidityRatioDifference,                !- Zone Latent Heating Design Supply Air Humidity Ratio Input Method
  ,                                       !- Zone Humidification Design Supply Air Humidity Ratio {kgWater/kgDryAir}
  0.005,                                  !- Zone Humidification Design Supply Air Humidity Ratio Difference {kgWater/kgDryAir}
  ,                                       !- Zone Humidistat Dehumidification Set Point Schedule Name
  ,                                       !- Zone Humidistat Humidification Set Point Schedule Name
  ,                                       !- Design Zone Air Distribution Effectiveness in Cooling Mode
  ,                                       !- Design Zone Air Distribution Effectiveness in Heating Mode
  ,                                       !- Design Zone Secondary Recirculation Fraction {dimensionless}
  ,                                       !- Design Minimum Zone Ventilation Efficiency {dimensionless}
  Coincident;                             !- Sizing Option

OS:ZoneHVAC:EquipmentList,
  {ffed3e8a-cf5d-4634-92d9-eb5f33eb92f6}, !- Handle
  Zone HVAC Equipment List 2,             !- Name
  {9d646b39-6f1a-4254-b73e-14fc8be261cf}; !- Thermal Zone

OS:AdditionalProperties,
  {bdcbfad1-b6a8-41ad-8483-4577034ea6cc}, !- Handle
  {9d646b39-6f1a-4254-b73e-14fc8be261cf}, !- Object Name
  ObjectType,                             !- Feature Name 1
  String,                                 !- Feature Data Type 1
  attic - vented;                         !- Feature Value 1

OS:Space,
  {d7ba495d-fe44-4d81-8ad2-be6b009cd767}, !- Handle
  attic - vented 1,                       !- Name
  ,                                       !- Space Type Name
  ,                                       !- Default Construction Set Name
  ,                                       !- Default Schedule Set Name
  ,                                       !- Direction of Relative North {deg}
  ,                                       !- X Origin {m}
  ,                                       !- Y Origin {m}
  ,                                       !- Z Origin {m}
  ,                                       !- Building Story Name
  {9d646b39-6f1a-4254-b73e-14fc8be261cf}, !- Thermal Zone Name
  ,                                       !- Part of Total Floor Area
  ,                                       !- Design Specification Outdoor Air Object Name
  ,                                       !- Building Unit Name
  356.389957095237;                       !- Volume {m3}

OS:Material,