
OS:Version,
  {743fbc01-12dc-4c93-9bbd-e289f48bd3d4}, !- Handle
  3.10.0;                                 !- Version Identifier

OS:SimulationControl,
  {2c603625-d99f-48e3-8485-92615cf0a119}, !- Handle
  ,                                       !- Do Zone Sizing Calculation
  ,                                       !- Do System Sizing Calculation
  ,                                       !- Do Plant Sizing Calculation
  No;                                     !- Run Simulation for Sizing Periods

OS:Timestep,
  {994b8ae2-fd4f-4757-bd34-58a52d2bc41c}, !- Handle
  1;                                      !- Number of Timesteps per Hour

OS:ShadowCalculation,
  {e5eb76a0-1459-4e3d-9580-c74b7a6e5339}, !- Handle
  PolygonClipping,                        !- Shading Calculation Method
  ,                                       !- Shading Calculation Update Frequency Method
  20,                                     !- Shading Calculation Update Frequency
  200,                                    !- Maximum Figures in Shadow Overlap Calculations
  ,                                       !- Polygon Clipping Algorithm
  512,                                    !- Pixel Counting Resolution
  ,                                       !- Sky Diffuse Modeling Algorithm
  No,                                     !- Output External Shading Calculation Results
  No,                                     !- Disable Self-Shading Within Shading Zone Groups
  No;                                     !- Disable Self-Shading From Shading Zone Groups to Other Zones

OS:SurfaceConvectionAlgorithm:Outside,
  {baa9263f-fb58-4423-a12d-3733493432f4}, !- Handle
  DOE-2;                                  !- Algorithm

OS:SurfaceConvectionAlgorithm:Inside,
  {95f9bcc2-6c9d-45e6-8696-12ff53b07f17}, !- Handle
  TARP;                                   !- Algorithm

OS:ZoneCapacitanceMultiplier:ResearchSpecial,
  {828a5d95-a683-4518-887e-a80567b6a722}, !- Handle
  7,                                      !- Temperature Capacity Multiplier
  15,                                     !- Humidity Capacity Multiplier
  ;                                       !- Carbon Dioxide Capacity Multiplier

OS:ConvergenceLimits,
  {65c933bd-5e05-4840-a867-b18b4316b46e}, !- Handle
  0;                                      !- Minimum System Timestep {minutes}

OS:RunPeriod,
  {3105246f-706d-4374-86e6-7b67f2122d30}, !- Handle
  Run Period 1,                           !- Name
  1,                                      !- Begin Month
  1,                                      !- Begin Day of Month
  12,                                     !- End Month
  31,                                     !- End Day of Month
  ,                                       !- Use Weather File Holidays and Special Days
  ,                                       !- Use Weather File Daylight Saving Period
  ,                                       !- Apply Weekend Holiday Rule
  ,                                       !- Use Weather File Rain Indicators
  ,                                       !- Use Weather File Snow Indicators
  ;                                       !- Number of Times Runperiod to be Repeated

OS:PerformancePrecisionTradeoffs,
  {f16775cd-b2d9-4379-91b5-251b3f42cbf5}, !- Handle
  ,                                       !- Use Coil Direct Solutions
  CarrollMRT;                             !- Zone Radiant Exchange Algorithm

OS:WeatherFile,
  {aa7ab5c0-e6ec-4ac6-af75-65361113ed81}, !- Handle
  Buffalo Niagara Intl Ap,                !- City
  NY,                                     !- State Province Region
  USA,                                    !- Country
  TMY3,                                   !- Data Source
  725280,                                 !- WMO Number
  42.93,                                  !- Latitude {deg}
  -78.73,                                 !- Longitude {deg}
  -5,                                     !- Time Zone {hr}
  215,                                    !- Elevation {m}
  /Users/nmoore/github/urbanopt-example-geojson-project/example_project/weather/USA_NY_Buffalo-Greater.Buffalo.Intl.AP.725280_TMY3.epw, !- Url
  6B50E0FF,                               !- Checksum
  ,                                       !- Start Date Actual Year
  Sunday;                                 !- Start Day of Week

OS:YearDescription,
  {5b556a55-0ccb-48e1-baec-8128914dd06d}, !- Handle
  2007,                                   !- Calendar Year
  ,                                       !- Day of Week for Start Day
  ;                                       !- Is Leap Year

OS:Site,
  {8ff05fc5-f8b2-4b45-840c-55f78e1d5c45}, !- Handle
  Buffalo Niagara Intl Ap_NY,             !- Name
  42.93,                                  !- Latitude {deg}
  -78.73,                                 !- Longitude {deg}
  -5,                                     !- Time Zone {hr}
  215,                                    !- Elevation {m}
  Suburbs,                                !- Terrain
  Yes;                                    !- Keep Site Location Information

OS:RunPeriodControl:DaylightSavingTime,
  {fd2b1df3-810c-411c-9301-de47cb9f004a}, !- Handle
  Mar 12,                                 !- Start Date
  Nov 5;                                  !- End Date

OS:Site:GroundTemperature:Shallow,
  {4969564f-083c-45a9-ab1c-5ca5df3b1f41}, !- Handle
  4.30207395723828,                       !- January Surface Ground Temperature {C}
  2.29327249652502,                       !- February Surface Ground Temperature {C}
  2.13240047156047,                       !- March Surface Ground Temperature {C}
  3.08567940719286,                       !- April Surface Ground Temperature {C}
  6.91256312497526,                       !- May Surface Ground Temperature {C}
  10.7216195949507,                       !- June Surface Ground Temperature {C}
  14.0238679822574,                       !- July Surface Ground Temperature {C}
  16.1157611184724,                       !- August Surface Ground Temperature {C}
  16.2934789303462,                       !- September Surface Ground Temperature {C}
  14.5920754632847,                       !- October Surface Ground Temperature {C}
  11.374036348653,                        !- November Surface Ground Temperature {C}
  7.68182621661674;                       !- December Surface Ground Temperature {C}

OS:ThermalZone,
  {419d00fc-4550-423d-892f-7949978561fa}, !- Handle
  conditioned space,                      !- Name
  1,                                      !- Multiplier
  ,                                       !- Ceiling Height {m}
  692.06373070848,                        !- Volume {m3}
  ,                                       !- Floor Area {m2}
  ,                                       !- Zone Inside Convection Algorithm
  ,                                       !- Zone Outside Convection Algorithm
  ,                                       !- Zone Conditioning Equipment List Name
  {d9e2e354-483f-497e-a0a6-e15878740864}, !- Zone Air Inlet Port List
  {9e5d65a0-9c42-426f-af01-b845cadc45b6}, !- Zone Air Exhaust Port List
  {a1a4bd4f-b248-4fef-b00a-234a2f695a89}, !- Zone Air Node Name
  {c66b47ba-9613-4a53-9fa6-4aa2c44fc7cb}, !- Zone Return Air Port List
  ,                                       !- Primary Daylighting Control Name
  ,                                       !- Fraction of Zone Controlled by Primary Daylighting Control
  ,                                       !- Secondary Daylighting Control Name
  ,                                       !- Fraction of Zone Controlled by Secondary Daylighting Control
  ,                                       !- Illuminance Map Name
  ,                                       !- Group Rendering Name
  {6642d14f-c802-474b-8e23-bcd9f89f3b4e}, !- Thermostat Name
  No;                                     !- Use Ideal Air Loads

OS:Node,
  {e97e54cf-0c41-4444-ae93-54b002430609}, !- Handle
  Node 1,                                 !- Name
  {a1a4bd4f-b248-4fef-b00a-234a2f695a89}, !- Inlet Port
  ;                                       !- Outlet Port

OS:Connection,
  {a1a4bd4f-b248-4fef-b00a-234a2f695a89}, !- Handle
  {419d00fc-4550-423d-892f-7949978561fa}, !- Source Object
  11,                                     !- Outlet Port
  {e97e54cf-0c41-4444-ae93-54b002430609}, !- Target Object
  2;                                      !- Inlet Port

OS:PortList,
  {d9e2e354-483f-497e-a0a6-e15878740864}, !- Handle
  {419d00fc-4550-423d-892f-7949978561fa}, !- HVAC Component
  {ec7f303e-6bbf-4048-b641-17932a45122f}, !- Port 1
  {cebbf9d8-633a-49b7-b5cb-7c9c527483f3}; !- Port 2

OS:PortList,
  {9e5d65a0-9c42-426f-af01-b845cadc45b6}, !- Handle
  {419d00fc-4550-423d-892f-7949978561fa}; !- HVAC Component

OS:PortList,
  {c66b47ba-9613-4a53-9fa6-4aa2c44fc7cb}, !- Handle
  {419d00fc-4550-423d-892f-7949978561fa}, !- HVAC Component
  {7a9c2aac-efc6-43ff-915d-71daa5af0f51}, !- Port 1
  {2c00f8de-b02e-4e12-ba64-bab084fea8e5}; !- Port 2

OS:Sizing:Zone,
  {2aa908f9-eaaf-4341-b974-4251ecb2cfc3}, !- Handle
  {419d00fc-4550-423d-892f-7949978561fa}, !- Zone or ZoneList Name
  SupplyAirTemperature,                   !- Zone Cooling Design Supply Air Temperature Input Method
  14,                                     !- Zone Cooling Design Supply Air Temperature {C}
  11.11,                                  !- Zone Cooling Design Supply Air Temperature Difference {deltaC}
  SupplyAirTemperature,                   !- Zone Heating Design Supply Air Temperature Input Method
  40,                                     !- Zone Heating Design Supply Air Temperature {C}
  11.11,                                  !- Zone Heating Design Supply Air Temperature Difference {deltaC}
  0.0085,                                 !- Zone Cooling Design Supply Air Humidity Ratio {kg-H2O/kg-air}
  0.008,                                  !- Zone Heating Design Supply Air Humidity Ratio {kg-H2O/kg-air}
  ,                                       !- Zone Heating Sizing Factor
  ,                                       !- Zone Cooling Sizing Factor
  DesignDay,                              !- Cooling Design Air Flow Method
  ,                                       !- Cooling Design Air Flow Rate {m3/s}
  ,                                       !- Cooling Minimum Air Flow per Zone Floor Area {m3/s-m2}
  ,                                       !- Cooling Minimum Air Flow {m3/s}
  ,                                       !- Cooling Minimum Air Flow Fraction
  DesignDay,                              !- Heating Design Air Flow Method
  ,                                       !- Heating Design Air Flow Rate {m3/s}
  ,                                       !- Heating Maximum Air Flow per Zone Floor Area {m3/s-m2}
  ,                                       !- Heating Maximum Air Flow {m3/s}
  ,                                       !- Heating Maximum Air Flow Fraction
  No,                                     !- Account for Dedicated Outdoor Air System
  NeutralSupplyAir,                       !- Dedicated Outdoor Air System Control Strategy
  autosize,                               !- Dedicated Outdoor Air Low Setpoint Temperature for Design {C}
  autosize,                               !- Dedicated Outdoor Air High Setpoint Temperature for Design {C}
  Sensible Load Only No Latent Load,      !- Zone Load Sizing Method
  HumidityRatioDifference,                !- Zone Latent Cooling Design Supply Air Humidity Ratio Input Method
  ,                                       !- Zone Dehumidification Design Supply Air Humidity Ratio {kgWater/kgDryAir}
  0.005,                                  !- Zone Cooling Design Supply Air Humidity Ratio Difference {kgWater/kgDryAir}
  HumidityRatioDifference,                !- Zone Latent Heating Design Supply Air Humidity Ratio Input Method
  ,                                       !- Zone Humidification Design Supply Air Humidity Ratio {kgWater/kgDryAir}
  0.005,                                  !- Zone Humidification Design Supply Air Humidity Ratio Difference {kgWater/kgDryAir}
  ,                                       !- Zone Humidistat Dehumidification Set Point Schedule Name
  ,                                       !- Zone Humidistat Humidification Set Point Schedule Name
  ,                                       !- Design Zone Air Distribution Effectiveness in Cooling Mode
  ,                                       !- Design Zone Air Distribution Effectiveness in Heating Mode
  ,                                       !- Design Zone Secondary Recirculation Fraction {dimensionless}
  ,                                       !- Design Minimum Zone Ventilation Efficiency {dimensionless}
  Coincident;                             !- Sizing Option

OS:ZoneHVAC:EquipmentList,
  {ae7e1bb3-b47b-4ce5-9447-237f4cb67532}, !- Handle
  Zone HVAC Equipment List 1,             !- Name
  {419d00fc-4550-423d-892f-7949978561fa}, !- Thermal Zone
  ,                                       !- Load Distribution Scheme
  {00eff920-b700-4f2d-9271-74a5306db15f}, !- Zone Equipment 1
  1,                                      !- Zone Equipment Cooling Sequence 1
  1,                                      !- Zone Equipment Heating or No-Load Sequence 1
  {d07a683f-8d5a-45b8-a924-3ecd0621cd7e}, !- Zone Equipment Sequential Cooling Fraction Schedule Name 1
  {b92dbb8a-5a7a-4936-bbb1-92c80c6eb745}, !- Zone Equipment Sequential Heating Fraction Schedule Name 1
  {f4348d2c-a5f1-438a-91ac-eade45f4999e}, !- Zone Equipment 2
  2,                                      !- Zone Equipment Cooling Sequence 2
  2,                                      !- Zone Equipment Heating or No-Load Sequence 2
  {3bbfa70c-e1d1-422e-abb6-eb8097bb60ed}, !- Zone Equipment Sequential Cooling Fraction Schedule Name 2
  {25b1acff-3120-488b-a34d-f7f42793cf9d}; !- Zone Equipment Sequential Heating Fraction Schedule Name 2

OS:AdditionalProperties,
  {56c6d3ad-99d5-41c8-9fdc-2f39dab70895}, !- Handle
  {419d00fc-4550-423d-892f-7949978561fa}, !- Object Name
  ObjectType,                             !- Feature Name 1
  String,                                 !- Feature Data Type 1
  conditioned space;                      !- Feature Value 1

OS:Space,
  {e3e0056e-a4a7-4c91-9247-bee8814ce2a9}, !- Handle
  conditioned space 1,                    !- Name
  ,                                       !- Space Type Name
  ,                                       !- Default Construction Set Name
  ,                                       !- Default Schedule Set Name
  ,                                       !- Direction of Relative North {deg}
  ,                                       !- X Origin {m}
  ,                                       !- Y Origin {m}
  ,                                       !- Z Origin {m}
  ,                                       !- Building Story Name
  {419d00fc-4550-423d-892f-7949978561fa}, !- Thermal Zone Name
  ,                                       !- Part of Total Floor Area
  ,                                       !- Design Specification Outdoor Air Object Name
  ,                                       !- Building Unit Name
  692.06373070848;                        !- Volume {m3}

OS:Schedule:Ruleset,
  {b5849e18-5fde-44ea-b8ff-676de5b80123}, !- Handle
  heating setpoint,                       !- Name
  {cf0a5523-6cac-4cef-ae0e-609213818a15}, !- Schedule Type Limits Name
  {cd389ed6-b653-4b10-8f9a-4c27f8bf49b8}; !- Default Day Schedule Name

OS:Schedule:Day,
  {cd389ed6-b653-4b10-8f9a-4c27f8bf49b8}, !- Handle
  heating setpoint default day,           !- Name
  {cf0a5523-6cac-4cef-ae0e-609213818a15}, !- Schedule Type Limits Name
  ,                                       !- Interpolate to Timestep
  24,                                     !- Hour 1
  0,                                      !- Minute 1
  0;                                      !- Value Until Time 1

OS:Schedule:Rule,
  {bd81e053-d0c9-418e-b39d-e8760350d0f2}, !- Handle
  heating setpoint allday rule,           !- Name
  {b5849e18-5fde-44ea-b8ff-676de5b80123}, !- Schedule Ruleset Name
  0,                                      !- Rule Order
  {e3c86fc4-753c-4526-bded-ca6aea3423fd}, !- Day Schedule Name
  Yes,                                    !- Apply Sunday
  Yes,                                    !- Apply Monday
  Yes,                                    !- Apply Tuesday
  Yes,                                    !- Apply Wednesday
  Yes,                                    !- Apply Thursday
  Yes,                                    !- Apply Friday
  Yes,                                    !- Apply Saturday
  DateRange,                              !- Date Specification Type
  1,                                      !- Start Month
  1,                                      !- Start Day
  12,                                     !- End Month
  31;                                     !- End Day

OS:Schedule:Day,
  {e3c86fc4-753c-4526-bded-ca6aea3423fd}, !- Handle
  heating setpoint day,                   !- Name
  {cf0a5523-6cac-4cef-ae0e-609213818a15}, !- Schedule Type Limits Name
  ,                                       !- Interpolate to Timestep
  24,                                     !- Hour 1
  0,                                      !- Minute 1
  20;                                     !- Value Until Time 1

OS:Schedule:Ruleset,
  {2e66d4b4-962f-4987-8c4e-299e0d42baa3}, !- Handle
  cooling setpoint,                       !- Name
  {cf0a5523-6cac-4cef-ae0e-609213818a15}, !- Schedule Type Limits Name
  {8f173b57-059c-4deb-8629-3b8c5242b48a}; !- Default Day Schedule Name

OS:Schedule:Day,
  {8f173b57-059c-4deb-8629-3b8c5242b48a}, !- Handle
  cooling setpoint default day,           !- Name
  {cf0a5523-6cac-4cef-ae0e-609213818a15}, !- Schedule Type Limits Name
  ,                                       !- Interpolate to Timestep
  24,                                     !- Hour 1
  0,                                      !- Minute 1
  0;                                      !- Value Until Time 1

OS:Schedule:Rule,
  {8374d211-09f1-4dca-80b7-ac17209d5f9e}, !- Handle
  cooling setpoint allday rule,           !- Name
  {2e66d4b4-962f-4987-8c4e-299e0d42baa3}, !- Schedule Ruleset Name
  0,                                      !- Rule Order
  {2fce2ad7-01b6-451a-8715-2428324107c5}, !- Day Schedule Name
  Yes,                                    !- Apply Sunday
  Yes,                                    !- Apply Monday
  Yes,                                    !- Apply Tuesday
  Yes,                                    !- Apply Wednesday
  Yes,                                    !- Apply Thursday
  Yes,                                    !- Apply Friday
  Yes,                                    !- Apply Saturday
  DateRange,                              !- Date Specification Type
  1,                                      !- Start Month
  1,                                      !- Start Day
  12,                                     !- End Month
  31;                                     !- End Day

OS:Schedule:Day,
  {2fce2ad7-01b6-451a-8715-2428324107c5}, !- Handle
  cooling setpoint day,                   !- Name
  {cf0a5523-6cac-4cef-ae0e-609213818a15}, !- Schedule Type Limits Name
  ,                                       !- Interpolate to Timestep
  24,                                     !- Hour 1
  0,                                      !- Minute 1
  25.5555555555556;                       !- Value Until Time 1

OS:ThermostatSetpoint:DualSetpoint,
  {6642d14f-c802-474b-8e23-bcd9f89f3b4e}, !- Handle
  conditioned space temperature setpoint, !- Name
  {b5849e18-5fde-44ea-b8ff-676de5b80123}, !- Heating Setpoint Temperature Schedule Name
  {2e66d4b4-962f-4987-8c4e-299e0d42baa3}, !- Cooling Setpoint Temperature Schedule Name
  0;                                      !- Temperature Difference Between Cutout And Setpoint {deltaC}

OS:ScheduleTypeLimits,
  {cf0a5523-6cac-4cef-ae0e-609213818a15}, !- Handle
  Temperature,                            !- Name
  ,                                       !- Lower Limit Value
  ,                                       !- Upper Limit Value
  Continuous,                             !- Numeric Type
  Temperature;                            !- Unit Type

OS:Surface,
  {e5d0855a-3936-4f36-9c06-3b9776b23dfb}, !- Handle
  Roof1,                                  !- Name
  RoofCeiling,                            !- Surface Type
  {62cbb619-1e50-4513-97d9-7bda30e46f2c}, !- Construction Name
  {b47f930d-45e2-4d29-8112-cdacb179406f}, !- Space Name
  Outdoors,                               !- Outside Boundary Condition
  ,                                       !- Outside Boundary Condition Object
  SunExposed,                             !- Sun Exposure
  WindExposed,                            !- Wind Exposure
  ,                                       !- View Factor to Ground
  ,                                       !- Number of Vertices
  -26.9347048849634, 58.0557891618865, 2.4384, !- X,Y,Z Vertex 1 {m}
  -26.9347048849634, 46.7895631136661, 8.0715130241102, !- X,Y,Z Vertex 2 {m}
  -14.3386812381136, 46.7895631136661, 8.0715130241102, !- X,Y,Z Vertex 3 {m}
  -14.3386812381136, 58.0557891618865, 2.4384; !- X,Y,Z Vertex 4 {m}

OS:AdditionalProperties,
  {43e8aac0-087c-4524-80da-edb451ca3f52}, !- Handle
  {e5d0855a-3936-4f36-9c06-3b9776b23dfb}, !- Object Name
  Length,                                 !- Feature Name 1
  Double,                                 !- Feature Data Type 1
  41.325536899113608,                     !- Feature Value 1
  Width,                                  !- Feature Name 2
  Double,                                 !- Feature Data Type 2
  41.325536899113601,                     !- Feature Value 2
  Azimuth,                                !- Feature Name 3
  Integer,                                !- Feature Data Type 3
  0,                                      !- Feature Value 3
  Tilt,                                   !- Feature Name 4
  Double,                                 !- Feature Data Type 4
  0.5,                                    !- Feature Value 4
  SurfaceType,                            !- Feature Name 5
  String,                                 !- Feature Data Type 5
  Roof;                                   !- Feature Value 5

OS:ThermalZone,
  {0d298229-6718-4399-9b64-e9d24cd099ed}, !- Handle
  attic - vented,                         !- Name
  1,                                      !- Multiplier
  ,                                       !- Ceiling Height {m}
  356.390921899745,                       !- Volume {m3}
  ,                                       !- Floor Area {m2}
  ,                                       !- Zone Inside Convection Algorithm
  ,                                       !- Zone Outside Convection Algorithm
  ,                                       !- Zone Conditioning Equipment List Name
  {c5472571-bf13-44ce-8b6a-3e72dd5dcfd4}, !- Zone Air Inlet Port List
  {0ce5f9ef-b640-40d8-9d7c-34707d2ca9f6}, !- Zone Air Exhaust Port List
  {a42d2886-e800-4a56-b7f0-cc519b35da77}, !- Zone Air Node Name
  {c6c9bd3f-83a9-4f5e-9672-26cfb0a237e8}, !- Zone Return Air Port List
  ,                                       !- Primary Daylighting Control Name
  ,                                       !- Fraction of Zone Controlled by Primary Daylighting Control
  ,                                       !- Secondary Daylighting Control Name
  ,                                       !- Fraction of Zone Controlled by Secondary Daylighting Control
  ,                                       !- Illuminance Map Name
  ,                                       !- Group Rendering Name
  ,                                       !- Thermostat Name
  No;                                     !- Use Ideal Air Loads

OS:Node,
  {0e95ccd1-8e28-4f1c-9f69-a0cfb63d9db0}, !- Handle
  Node 2,                                 !- Name
  {a42d2886-e800-4a56-b7f0-cc519b35da77}, !- Inlet Port
  ;                                       !- Outlet Port

OS:Connection,
  {a42d2886-e800-4a56-b7f0-cc519b35da77}, !- Handle
  {0d298229-6718-4399-9b64-e9d24cd099ed}, !- Source Object
  11,                                     !- Outlet Port
  {0e95ccd1-8e28-4f1c-9f69-a0cfb63d9db0}, !- Target Object
  2;                                      !- Inlet Port

OS:PortList,
  {c5472571-bf13-44ce-8b6a-3e72dd5dcfd4}, !- Handle
  {0d298229-6718-4399-9b64-e9d24cd099ed}; !- HVAC Component

OS:PortList,
  {0ce5f9ef-b640-40d8-9d7c-34707d2ca9f6}, !- Handle
  {0d298229-6718-4399-9b64-e9d24cd099ed}; !- HVAC Component

OS:PortList,
  {c6c9bd3f-83a9-4f5e-9672-26cfb0a237e8}, !- Handle
  {0d298229-6718-4399-9b64-e9d24cd099ed}; !- HVAC Component

OS:Sizing:Zone,
  {222ad99d-74b9-4de2-813b-6b0746b7c203}, !- Handle
  {0d298229-6718-4399-9b64-e9d24cd099ed}, !- Zone or ZoneList Name
  SupplyAirTemperature,                   !- Zone Cooling Design Supply Air Temperature Input Method
  14,                                     !- Zone Cooling Design Supply Air Temperature {C}
  11.11,                                  !- Zone Cooling Design Supply Air Temperature Difference {deltaC}
  SupplyAirTemperature,                   !- Zone Heating Design Supply Air Temperature Input Method
  40,                                     !- Zone Heating Design Supply Air Temperature {C}
  11.11,                                  !- Zone Heating Design Supply Air Temperature Difference {deltaC}
  0.0085,                                 !- Zone Cooling Design Supply Air Humidity Ratio {kg-H2O/kg-air}
  0.008,                                  !- Zone Heating Design Supply Air Humidity Ratio {kg-H2O/kg-air}
  ,                                       !- Zone Heating Sizing Factor
  ,                                       !- Zone Cooling Sizing Factor
  DesignDay,                              !- Cooling Design Air Flow Method
  ,                                       !- Cooling Design Air Flow Rate {m3/s}
  ,                                       !- Cooling Minimum Air Flow per Zone Floor Area {m3/s-m2}
  ,                                       !- Cooling Minimum Air Flow {m3/s}
  ,                                       !- Cooling Minimum Air Flow Fraction
  DesignDay,                              !- Heating Design Air Flow Method
  ,                                       !- Heating Design Air Flow Rate {m3/s}
  ,                                       !- Heating Maximum Air Flow per Zone Floor Area {m3/s-m2}
  ,                                       !- Heating Maximum Air Flow {m3/s}
  ,                                       !- Heating Maximum Air Flow Fraction
  No,                                     !- Account for Dedicated Outdoor Air System
  NeutralSupplyAir,                       !- Dedicated Outdoor Air System Control Strategy
  autosize,                               !- Dedicated Outdoor Air Low Setpoint Temperature for Design {C}
  autosize,                               !- Dedicated Outdoor Air High Setpoint Temperature for Design {C}
  Sensible Load Only No Latent Load,      !- Zone Load Sizing Method
  HumidityRatioDifference,                !- Zone Latent Cooling Design Supply Air Humidity Ratio Input Method
  ,                                       !- Zone Dehumidification Design Supply Air Humidity Ratio {kgWater/kgDryAir}
  0.005,                                  !- Zone Cooling Design Supply Air Humidity Ratio Difference {kgWater/kgDryAir}
  HumidityRatioDifference,                !- Zone Latent Heating Design Supply Air Humidity Ratio Input Method
  ,                                       !- Zone Humidification Design Supply Air Humidity Ratio {kgWater/kgDryAir}
  0.005,                                  !- Zone Humidification Design Supply Air Humidity Ratio Difference {kgWater/kgDryAir}
  ,                                       !- Zone Humidistat Dehumidification Set Point Schedule Name
  ,                                       !- Zone Humidistat Humidification Set Point Schedule Name
  ,                                       !- Design Zone Air Distribution Effectiveness in Cooling Mode
  ,                                       !- Design Zone Air Distribution Effectiveness in Heating Mode
  ,                                       !- Design Zone Secondary Recirculation Fraction {dimensionless}
  ,                                       !- Design Minimum Zone Ventilation Efficiency {dimensionless}
  Coincident;                             !- Sizing Option

OS:ZoneHVAC:EquipmentList,
  {ac7ce4f6-4885-4d9b-8edb-9c4f68c85e62}, !- Handle
  Zone HVAC Equipment List 2,             !- Name
  {0d298229-6718-4399-9b64-e9d24cd099ed}; !- Thermal Zone

OS:AdditionalProperties,
  {e208d841-6d5f-4fe8-a8a2-9b97daea57cd}, !- Handle
  {0d298229-6718-4399-9b64-e9d24cd099ed}, !- Object Name
  ObjectType,                             !- Feature Name 1
  String,                                 !- Feature Data Type 1
  attic - vented;                         !- Feature Value 1

OS:Space,
  {b47f930d-45e2-4d29-8112-cdacb179406f}, !- Handle
  attic - vented 1,                       !- Name
  ,                                       !- Space Type Name
  ,                                       !- Default Construction Set Name
  ,                                       !- Default Schedule Set Name
  ,                                       !- Direction of Relative North {deg}
  ,                                       !- X Origin {m}
  ,                                       !- Y Origin {m}
  ,                                       !- Z Origin {m}
  ,                                       !- Building Story Name
  {0d298229-6718-4399-9b64-e9d24cd099ed}, !- Thermal Zone Name
  ,                                       !- Part of Total Floor Area
  ,                                       !- Design Specification Outdoor Air Object Name
  ,                                       !- Building Unit Name
  356.390921899745;                       !- Volume {m3}

OS:Material,