
OS:Version,
  {df491ab7-6579-49be-ba20-50162e29e988}, !- Handle
  3.9.0;                                  !- Version Identifier

OS:SimulationControl,
  {bd4a1f6b-aa7b-4b18-acd0-185dcd4c95f5}, !- Handle
  ,                                       !- Do Zone Sizing Calculation
  ,                                       !- Do System Sizing Calculation
  ,                                       !- Do Plant Sizing Calculation
  No;                                     !- Run Simulation for Sizing Periods

OS:Timestep,
  {8cfff229-7022-4197-bab9-9c30a9c79190}, !- Handle
  1;                                      !- Number of Timesteps per Hour

OS:ShadowCalculation,
  {f4192333-19f9-46e0-925d-85e507a710d7}, !- Handle
  PolygonClipping,                        !- Shading Calculation Method
  ,                                       !- Shading Calculation Update Frequency Method
  20,                                     !- Shading Calculation Update Frequency
  200,                                    !- Maximum Figures in Shadow Overlap Calculations
  ,                                       !- Polygon Clipping Algorithm
  512,                                    !- Pixel Counting Resolution
  ,                                       !- Sky Diffuse Modeling Algorithm
  No,                                     !- Output External Shading Calculation Results
  No,                                     !- Disable Self-Shading Within Shading Zone Groups
  No;                                     !- Disable Self-Shading From Shading Zone Groups to Other Zones

OS:SurfaceConvectionAlgorithm:Outside,
  {bdce8f96-ebcd-4533-a952-290bf5ba1265}, !- Handle
  DOE-2;                                  !- Algorithm

OS:SurfaceConvectionAlgorithm:Inside,
  {c52db305-e920-4664-ad5c-76b4d0c13ea8}, !- Handle
  TARP;                                   !- Algorithm

OS:ZoneCapacitanceMultiplier:ResearchSpecial,
  {5a9215a0-67a5-44b6-a4b8-9946e282a676}, !- Handle
  7,                                      !- Temperature Capacity Multiplier
  15,                                     !- Humidity Capacity Multiplier
  ;                                       !- Carbon Dioxide Capacity Multiplier

OS:ConvergenceLimits,
  {80176d99-b2a8-4500-81c7-5d1fa5069481}, !- Handle
  0;                                      !- Minimum System Timestep {minutes}

OS:RunPeriod,
  {24cb7967-da29-459c-9437-b429a5685e7a}, !- Handle
  Run Period 1,                           !- Name
  1,                                      !- Begin Month
  1,                                      !- Begin Day of Month
  12,                                     !- End Month
  31,                                     !- End Day of Month
  ,                                       !- Use Weather File Holidays and Special Days
  ,                                       !- Use Weather File Daylight Saving Period
  ,                                       !- Apply Weekend Holiday Rule
  ,                                       !- Use Weather File Rain Indicators
  ,                                       !- Use Weather File Snow Indicators
  ;                                       !- Number of Times Runperiod to be Repeated

OS:PerformancePrecisionTradeoffs,
  {71e6420c-0708-43e4-9fc4-699026b4d8b7}, !- Handle
  ,                                       !- Use Coil Direct Solutions
  CarrollMRT;                             !- Zone Radiant Exchange Algorithm

OS:WeatherFile,
  {00a3b9ee-7fc4-4927-acf3-e7e9362d2afa}, !- Handle
  Buffalo Niagara Intl Ap,                !- City
  NY,                                     !- State Province Region
  USA,                                    !- Country
  TMY3,                                   !- Data Source
  725280,                                 !- WMO Number
  42.93,                                  !- Latitude {deg}
  -78.73,                                 !- Longitude {deg}
  -5,                                     !- Time Zone {hr}
  215,                                    !- Elevation {m}
  /Users/nmoore/github/urbanopt-example-geojson-project/example_project/weather/USA_NY_Buffalo-Greater.Buffalo.Intl.AP.725280_TMY3.epw, !- Url
  6B50E0FF,                               !- Checksum
  ,                                       !- Start Date Actual Year
  Sunday;                                 !- Start Day of Week

OS:YearDescription,
  {951caa0f-1dba-43a1-911f-b14ef97ff71b}, !- Handle
  2007,                                   !- Calendar Year
  ,                                       !- Day of Week for Start Day
  ;                                       !- Is Leap Year

OS:Site,
  {f2f51094-7088-4f3c-a127-c96deddf6ee1}, !- Handle
  Buffalo Niagara Intl Ap_NY,             !- Name
  42.93,                                  !- Latitude {deg}
  -78.73,                                 !- Longitude {deg}
  -5,                                     !- Time Zone {hr}
  215,                                    !- Elevation {m}
  Suburbs,                                !- Terrain
  Yes;                                    !- Keep Site Location Information

OS:RunPeriodControl:DaylightSavingTime,
  {dc5e4e4b-1910-46a8-bf4d-6d48ba5751c9}, !- Handle
  Mar 12,                                 !- Start Date
  Nov 5;                                  !- End Date

OS:Site:GroundTemperature:Shallow,
  {e043f974-a66e-425b-a1e6-8e087fb08d5a}, !- Handle
  4.30207395723828,                       !- January Surface Ground Temperature {C}
  2.29327249652502,                       !- February Surface Ground Temperature {C}
  2.13240047156047,                       !- March Surface Ground Temperature {C}
  3.08567940719286,                       !- April Surface Ground Temperature {C}
  6.91256312497526,                       !- May Surface Ground Temperature {C}
  10.7216195949507,                       !- June Surface Ground Temperature {C}
  14.0238679822574,                       !- July Surface Ground Temperature {C}
  16.1157611184724,                       !- August Surface Ground Temperature {C}
  16.2934789303462,                       !- September Surface Ground Temperature {C}
  14.5920754632847,                       !- October Surface Ground Temperature {C}
  11.374036348653,                        !- November Surface Ground Temperature {C}
  7.68182621661674;                       !- December Surface Ground Temperature {C}

OS:ThermalZone,
  {ac18ae4d-2b64-4086-839f-aed3cba9f4e1}, !- Handle
  conditioned space,                      !- Name
  1,                                      !- Multiplier
  ,                                       !- Ceiling Height {m}
  692.06373070848,                        !- Volume {m3}
  ,                                       !- Floor Area {m2}
  ,                                       !- Zone Inside Convection Algorithm
  ,                                       !- Zone Outside Convection Algorithm
  ,                                       !- Zone Conditioning Equipment List Name
  {efebcb08-b5b0-4855-968f-c029abbb45d3}, !- Zone Air Inlet Port List
  {f4b52e69-2577-497e-b82b-dcb24ae7fe7f}, !- Zone Air Exhaust Port List
  {586db200-b81c-46fb-99b0-944f415c5011}, !- Zone Air Node Name
  {a10af202-7928-4789-8501-31555e3c352b}, !- Zone Return Air Port List
  ,                                       !- Primary Daylighting Control Name
  ,                                       !- Fraction of Zone Controlled by Primary Daylighting Control
  ,                                       !- Secondary Daylighting Control Name
  ,                                       !- Fraction of Zone Controlled by Secondary Daylighting Control
  ,                                       !- Illuminance Map Name
  ,                                       !- Group Rendering Name
  {b751d49c-8fa8-4dcb-9b5d-dd2b9670eab9}, !- Thermostat Name
  No;                                     !- Use Ideal Air Loads

OS:Node,
  {7b5b3979-cd24-4d60-9f36-ec212fe1b07f}, !- Handle
  Node 1,                                 !- Name
  {586db200-b81c-46fb-99b0-944f415c5011}, !- Inlet Port
  ;                                       !- Outlet Port

OS:Connection,
  {586db200-b81c-46fb-99b0-944f415c5011}, !- Handle
  {ac18ae4d-2b64-4086-839f-aed3cba9f4e1}, !- Source Object
  11,                                     !- Outlet Port
  {7b5b3979-cd24-4d60-9f36-ec212fe1b07f}, !- Target Object
  2;                                      !- Inlet Port

OS:PortList,
  {efebcb08-b5b0-4855-968f-c029abbb45d3}, !- Handle
  {ac18ae4d-2b64-4086-839f-aed3cba9f4e1}, !- HVAC Component
  {f0bb88ad-e6f8-4d46-9d19-9c6b6aad2d5a}; !- Port 1

OS:PortList,
  {f4b52e69-2577-497e-b82b-dcb24ae7fe7f}, !- Handle
  {ac18ae4d-2b64-4086-839f-aed3cba9f4e1}; !- HVAC Component

OS:PortList,
  {a10af202-7928-4789-8501-31555e3c352b}, !- Handle
  {ac18ae4d-2b64-4086-839f-aed3cba9f4e1}, !- HVAC Component
  {1814f7a4-83dd-4224-afc5-2b538bccd3d6}; !- Port 1

OS:Sizing:Zone,
  {41f36950-5191-484a-add3-f3b21a2c1a84}, !- Handle
  {ac18ae4d-2b64-4086-839f-aed3cba9f4e1}, !- Zone or ZoneList Name
  SupplyAirTemperature,                   !- Zone Cooling Design Supply Air Temperature Input Method
  14,                                     !- Zone Cooling Design Supply Air Temperature {C}
  11.11,                                  !- Zone Cooling Design Supply Air Temperature Difference {deltaC}
  SupplyAirTemperature,                   !- Zone Heating Design Supply Air Temperature Input Method
  40,                                     !- Zone Heating Design Supply Air Temperature {C}
  11.11,                                  !- Zone Heating Design Supply Air Temperature Difference {deltaC}
  0.0085,                                 !- Zone Cooling Design Supply Air Humidity Ratio {kg-H2O/kg-air}
  0.008,                                  !- Zone Heating Design Supply Air Humidity Ratio {kg-H2O/kg-air}
  ,                                       !- Zone Heating Sizing Factor
  ,                                       !- Zone Cooling Sizing Factor
  DesignDay,                              !- Cooling Design Air Flow Method
  ,                                       !- Cooling Design Air Flow Rate {m3/s}
  ,                                       !- Cooling Minimum Air Flow per Zone Floor Area {m3/s-m2}
  ,                                       !- Cooling Minimum Air Flow {m3/s}
  ,                                       !- Cooling Minimum Air Flow Fraction
  DesignDay,                              !- Heating Design Air Flow Method
  ,                                       !- Heating Design Air Flow Rate {m3/s}
  ,                                       !- Heating Maximum Air Flow per Zone Floor Area {m3/s-m2}
  ,                                       !- Heating Maximum Air Flow {m3/s}
  ,                                       !- Heating Maximum Air Flow Fraction
  No,                                     !- Account for Dedicated Outdoor Air System
  NeutralSupplyAir,                       !- Dedicated Outdoor Air System Control Strategy
  autosize,                               !- Dedicated Outdoor Air Low Setpoint Temperature for Design {C}
  autosize,                               !- Dedicated Outdoor Air High Setpoint Temperature for Design {C}
  Sensible Load Only No Latent Load,      !- Zone Load Sizing Method
  HumidityRatioDifference,                !- Zone Latent Cooling Design Supply Air Humidity Ratio Input Method
  ,                                       !- Zone Dehumidification Design Supply Air Humidity Ratio {kgWater/kgDryAir}
  0.005,                                  !- Zone Cooling Design Supply Air Humidity Ratio Difference {kgWater/kgDryAir}
  HumidityRatioDifference,                !- Zone Latent Heating Design Supply Air Humidity Ratio Input Method
  ,                                       !- Zone Humidification Design Supply Air Humidity Ratio {kgWater/kgDryAir}
  0.005,                                  !- Zone Humidification Design Supply Air Humidity Ratio Difference {kgWater/kgDryAir}
  ,                                       !- Zone Humidistat Dehumidification Set Point Schedule Name
  ,                                       !- Zone Humidistat Humidification Set Point Schedule Name
  ,                                       !- Design Zone Air Distribution Effectiveness in Cooling Mode
  ,                                       !- Design Zone Air Distribution Effectiveness in Heating Mode
  ,                                       !- Design Zone Secondary Recirculation Fraction {dimensionless}
  ,                                       !- Design Minimum Zone Ventilation Efficiency {dimensionless}
  Coincident;                             !- Sizing Option

OS:ZoneHVAC:EquipmentList,
  {eb245459-7c1a-4e6c-bc9f-66c66008cedf}, !- Handle
  Zone HVAC Equipment List 1,             !- Name
  {ac18ae4d-2b64-4086-839f-aed3cba9f4e1}, !- Thermal Zone
  ,                                       !- Load Distribution Scheme
  {7507139a-f4d2-4d18-87db-7840cbf64a60}, !- Zone Equipment 1
  1,                                      !- Zone Equipment Cooling Sequence 1
  1,                                      !- Zone Equipment Heating or No-Load Sequence 1
  {23e5151f-28f4-4159-bc1f-1dbd95c2dd2d}, !- Zone Equipment Sequential Cooling Fraction Schedule Name 1
  {f7f52710-a60c-488b-b041-8b79e8173a5c}; !- Zone Equipment Sequential Heating Fraction Schedule Name 1

OS:AdditionalProperties,
  {30634c26-a3b9-4217-9349-02bb89a9af53}, !- Handle
  {ac18ae4d-2b64-4086-839f-aed3cba9f4e1}, !- Object Name
  ObjectType,                             !- Feature Name 1
  String,                                 !- Feature Data Type 1
  conditioned space;                      !- Feature Value 1

OS:Space,
  {8d14f6f8-fd99-4714-a69c-5321eec1f4df}, !- Handle
  conditioned space 1,                    !- Name
  ,                                       !- Space Type Name
  ,                                       !- Default Construction Set Name
  ,                                       !- Default Schedule Set Name
  ,                                       !- Direction of Relative North {deg}
  ,                                       !- X Origin {m}
  ,                                       !- Y Origin {m}
  ,                                       !- Z Origin {m}
  ,                                       !- Building Story Name
  {ac18ae4d-2b64-4086-839f-aed3cba9f4e1}, !- Thermal Zone Name
  ,                                       !- Part of Total Floor Area
  ,                                       !- Design Specification Outdoor Air Object Name
  ,                                       !- Building Unit Name
  692.06373070848;                        !- Volume {m3}

OS:Schedule:Ruleset,
  {843f8069-2e2e-4f42-81ec-fc54f673d216}, !- Handle
  heating setpoint,                       !- Name
  {532a640e-0f83-4480-86ab-53cf55539808}, !- Schedule Type Limits Name
  {eb01eb2f-6f4c-4bfb-8aeb-86bf4091b512}; !- Default Day Schedule Name

OS:Schedule:Day,
  {eb01eb2f-6f4c-4bfb-8aeb-86bf4091b512}, !- Handle
  heating setpoint default day,           !- Name
  {532a640e-0f83-4480-86ab-53cf55539808}, !- Schedule Type Limits Name
  ,                                       !- Interpolate to Timestep
  24,                                     !- Hour 1
  0,                                      !- Minute 1
  0;                                      !- Value Until Time 1

OS:Schedule:Rule,
  {5e036036-e8e5-479b-8276-9360658bfcff}, !- Handle
  heating setpoint allday rule,           !- Name
  {843f8069-2e2e-4f42-81ec-fc54f673d216}, !- Schedule Ruleset Name
  0,                                      !- Rule Order
  {b3d3ffe8-87f5-448d-9f60-0fba6fcfcabe}, !- Day Schedule Name
  Yes,                                    !- Apply Sunday
  Yes,                                    !- Apply Monday
  Yes,                                    !- Apply Tuesday
  Yes,                                    !- Apply Wednesday
  Yes,                                    !- Apply Thursday
  Yes,                                    !- Apply Friday
  Yes,                                    !- Apply Saturday
  DateRange,                              !- Date Specification Type
  1,                                      !- Start Month
  1,                                      !- Start Day
  12,                                     !- End Month
  31;                                     !- End Day

OS:Schedule:Day,
  {b3d3ffe8-87f5-448d-9f60-0fba6fcfcabe}, !- Handle
  heating setpoint day,                   !- Name
  {532a640e-0f83-4480-86ab-53cf55539808}, !- Schedule Type Limits Name
  ,                                       !- Interpolate to Timestep
  24,                                     !- Hour 1
  0,                                      !- Minute 1
  20;                                     !- Value Until Time 1

OS:Schedule:Ruleset,
  {d8a61c12-9a6d-4a29-aef9-d34d18436ce3}, !- Handle
  cooling setpoint,                       !- Name
  {532a640e-0f83-4480-86ab-53cf55539808}, !- Schedule Type Limits Name
  {97e44f3c-51ef-4c76-bce5-6eb536a44520}; !- Default Day Schedule Name

OS:Schedule:Day,
  {97e44f3c-51ef-4c76-bce5-6eb536a44520}, !- Handle
  cooling setpoint default day,           !- Name
  {532a640e-0f83-4480-86ab-53cf55539808}, !- Schedule Type Limits Name
  ,                                       !- Interpolate to Timestep
  24,                                     !- Hour 1
  0,                                      !- Minute 1
  0;                                      !- Value Until Time 1

OS:Schedule:Rule,
  {30103761-beec-4ba1-9bd9-9b4fbc838228}, !- Handle
  cooling setpoint allday rule,           !- Name
  {d8a61c12-9a6d-4a29-aef9-d34d18436ce3}, !- Schedule Ruleset Name
  0,                                      !- Rule Order
  {36345d82-2c88-4c24-8994-9c9898be4fdb}, !- Day Schedule Name
  Yes,                                    !- Apply Sunday
  Yes,                                    !- Apply Monday
  Yes,                                    !- Apply Tuesday
  Yes,                                    !- Apply Wednesday
  Yes,                                    !- Apply Thursday
  Yes,                                    !- Apply Friday
  Yes,                                    !- Apply Saturday
  DateRange,                              !- Date Specification Type
  1,                                      !- Start Month
  1,                                      !- Start Day
  12,                                     !- End Month
  31;                                     !- End Day

OS:Schedule:Day,
  {36345d82-2c88-4c24-8994-9c9898be4fdb}, !- Handle
  cooling setpoint day,                   !- Name
  {532a640e-0f83-4480-86ab-53cf55539808}, !- Schedule Type Limits Name
  ,                                       !- Interpolate to Timestep
  24,                                     !- Hour 1
  0,                                      !- Minute 1
  25.5555555555556;                       !- Value Until Time 1

OS:ThermostatSetpoint:DualSetpoint,
  {b751d49c-8fa8-4dcb-9b5d-dd2b9670eab9}, !- Handle
  conditioned space temperature setpoint, !- Name
  {843f8069-2e2e-4f42-81ec-fc54f673d216}, !- Heating Setpoint Temperature Schedule Name
  {d8a61c12-9a6d-4a29-aef9-d34d18436ce3}, !- Cooling Setpoint Temperature Schedule Name
  0;                                      !- Temperature Difference Between Cutout And Setpoint {deltaC}

OS:ScheduleTypeLimits,
  {532a640e-0f83-4480-86ab-53cf55539808}, !- Handle
  Temperature,                            !- Name
  ,                                       !- Lower Limit Value
  ,                                       !- Upper Limit Value
  Continuous,                             !- Numeric Type
  Temperature;                            !- Unit Type

OS:Surface,
  {14114dc3-170c-4515-b663-9113871706c0}, !- Handle
  Roof1,                                  !- Name
  RoofCeiling,                            !- Surface Type
  {5816bd54-42cc-4374-b69a-8d8f25f4d478}, !- Construction Name
  {1241dcd3-b5d7-43ac-8e1e-5189f8f609e9}, !- Space Name
  Outdoors,                               !- Outside Boundary Condition
  ,                                       !- Outside Boundary Condition Object
  SunExposed,                             !- Sun Exposure
  WindExposed,                            !- Wind Exposure
  ,                                       !- View Factor to Ground
  ,                                       !- Number of Vertices
  -26.9347048849634, 58.0557891618865, 2.4384, !- X,Y,Z Vertex 1 {m}
  -26.9347048849634, 46.7895631136661, 8.0715130241102, !- X,Y,Z Vertex 2 {m}
  -14.3386812381136, 46.7895631136661, 8.0715130241102, !- X,Y,Z Vertex 3 {m}
  -14.3386812381136, 58.0557891618865, 2.4384; !- X,Y,Z Vertex 4 {m}

OS:AdditionalProperties,
  {12753f02-dea5-407d-b996-6c63318732db}, !- Handle
  {14114dc3-170c-4515-b663-9113871706c0}, !- Object Name
  Length,                                 !- Feature Name 1
  Double,                                 !- Feature Data Type 1
  41.325536899113608,                     !- Feature Value 1
  Width,                                  !- Feature Name 2
  Double,                                 !- Feature Data Type 2
  41.325536899113601,                     !- Feature Value 2
  Azimuth,                                !- Feature Name 3
  Integer,                                !- Feature Data Type 3
  0,                                      !- Feature Value 3
  Tilt,                                   !- Feature Name 4
  Double,                                 !- Feature Data Type 4
  0.5,                                    !- Feature Value 4
  SurfaceType,                            !- Feature Name 5
  String,                                 !- Feature Data Type 5
  Roof;                                   !- Feature Value 5

OS:ThermalZone,
  {37d75252-0d13-4bb6-8909-d2802a2a6cba}, !- Handle
  attic - vented,                         !- Name
  1,                                      !- Multiplier
  ,                                       !- Ceiling Height {m}
  356.389957095237,                       !- Volume {m3}
  ,                                       !- Floor Area {m2}
  ,                                       !- Zone Inside Convection Algorithm
  ,                                       !- Zone Outside Convection Algorithm
  ,                                       !- Zone Conditioning Equipment List Name
  {26c422cc-1706-455f-8071-8f384943883c}, !- Zone Air Inlet Port List
  {2f73287a-3203-498f-b6b4-79a085b65591}, !- Zone Air Exhaust Port List
  {556f2d1b-cf55-4510-9326-3970225a97d8}, !- Zone Air Node Name
  {dfd3350f-ea3d-470d-8c38-c385bca712f4}, !- Zone Return Air Port List
  ,                                       !- Primary Daylighting Control Name
  ,                                       !- Fraction of Zone Controlled by Primary Daylighting Control
  ,                                       !- Secondary Daylighting Control Name
  ,                                       !- Fraction of Zone Controlled by Secondary Daylighting Control
  ,                                       !- Illuminance Map Name
  ,                                       !- Group Rendering Name
  ,                                       !- Thermostat Name
  No;                                     !- Use Ideal Air Loads

OS:Node,
  {d16a4d57-ee40-4740-9dae-b45d7530d02a}, !- Handle
  Node 2,                                 !- Name
  {556f2d1b-cf55-4510-9326-3970225a97d8}, !- Inlet Port
  ;                                       !- Outlet Port

OS:Connection,
  {556f2d1b-cf55-4510-9326-3970225a97d8}, !- Handle
  {37d75252-0d13-4bb6-8909-d2802a2a6cba}, !- Source Object
  11,                                     !- Outlet Port
  {d16a4d57-ee40-4740-9dae-b45d7530d02a}, !- Target Object
  2;                                      !- Inlet Port

OS:PortList,
  {26c422cc-1706-455f-8071-8f384943883c}, !- Handle
  {37d75252-0d13-4bb6-8909-d2802a2a6cba}; !- HVAC Component

OS:PortList,
  {2f73287a-3203-498f-b6b4-79a085b65591}, !- Handle
  {37d75252-0d13-4bb6-8909-d2802a2a6cba}; !- HVAC Component

OS:PortList,
  {dfd3350f-ea3d-470d-8c38-c385bca712f4}, !- Handle
  {37d75252-0d13-4bb6-8909-d2802a2a6cba}; !- HVAC Component

OS:Sizing:Zone,
  {c27c0eac-e8aa-465f-96f9-953a7bb13032}, !- Handle
  {37d75252-0d13-4bb6-8909-d2802a2a6cba}, !- Zone or ZoneList Name
  SupplyAirTemperature,                   !- Zone Cooling Design Supply Air Temperature Input Method
  14,                                     !- Zone Cooling Design Supply Air Temperature {C}
  11.11,                                  !- Zone Cooling Design Supply Air Temperature Difference {deltaC}
  SupplyAirTemperature,                   !- Zone Heating Design Supply Air Temperature Input Method
  40,                                     !- Zone Heating Design Supply Air Temperature {C}
  11.11,                                  !- Zone Heating Design Supply Air Temperature Difference {deltaC}
  0.0085,                                 !- Zone Cooling Design Supply Air Humidity Ratio {kg-H2O/kg-air}
  0.008,                                  !- Zone Heating Design Supply Air Humidity Ratio {kg-H2O/kg-air}
  ,                                       !- Zone Heating Sizing Factor
  ,                                       !- Zone Cooling Sizing Factor
  DesignDay,                              !- Cooling Design Air Flow Method
  ,                                       !- Cooling Design Air Flow Rate {m3/s}
  ,                                       !- Cooling Minimum Air Flow per Zone Floor Area {m3/s-m2}
  ,                                       !- Cooling Minimum Air Flow {m3/s}
  ,                                       !- Cooling Minimum Air Flow Fraction
  DesignDay,                              !- Heating Design Air Flow Method
  ,                                       !- Heating Design Air Flow Rate {m3/s}
  ,                                       !- Heating Maximum Air Flow per Zone Floor Area {m3/s-m2}
  ,                                       !- Heating Maximum Air Flow {m3/s}
  ,                                       !- Heating Maximum Air Flow Fraction
  No,                                     !- Account for Dedicated Outdoor Air System
  NeutralSupplyAir,                       !- Dedicated Outdoor Air System Control Strategy
  autosize,                               !- Dedicated Outdoor Air Low Setpoint Temperature for Design {C}
  autosize,                               !- Dedicated Outdoor Air High Setpoint Temperature for Design {C}
  Sensible Load Only No Latent Load,      !- Zone Load Sizing Method
  HumidityRatioDifference,                !- Zone Latent Cooling Design Supply Air Humidity Ratio Input Method
  ,                                       !- Zone Dehumidification Design Supply Air Humidity Ratio {kgWater/kgDryAir}
  0.005,                                  !- Zone Cooling Design Supply Air Humidity Ratio Difference {kgWater/kgDryAir}
  HumidityRatioDifference,                !- Zone Latent Heating Design Supply Air Humidity Ratio Input Method
  ,                                       !- Zone Humidification Design Supply Air Humidity Ratio {kgWater/kgDryAir}
  0.005,                                  !- Zone Humidification Design Supply Air Humidity Ratio Difference {kgWater/kgDryAir}
  ,                                       !- Zone Humidistat Dehumidification Set Point Schedule Name
  ,                                       !- Zone Humidistat Humidification Set Point Schedule Name
  ,                                       !- Design Zone Air Distribution Effectiveness in Cooling Mode
  ,                                       !- Design Zone Air Distribution Effectiveness in Heating Mode
  ,                                       !- Design Zone Secondary Recirculation Fraction {dimensionless}
  ,                                       !- Design Minimum Zone Ventilation Efficiency {dimensionless}
  Coincident;                             !- Sizing Option

OS:ZoneHVAC:EquipmentList,
  {e1e18fec-d62b-4963-8349-ab5bd0fd0c12}, !- Handle
  Zone HVAC Equipment List 2,             !- Name
  {37d75252-0d13-4bb6-8909-d2802a2a6cba}; !- Thermal Zone

OS:AdditionalProperties,
  {19cb300c-bebe-496f-8d7a-e1e3d420e469}, !- Handle
  {37d75252-0d13-4bb6-8909-d2802a2a6cba}, !- Object Name
  ObjectType,                             !- Feature Name 1
  String,                                 !- Feature Data Type 1
  attic - vented;                         !- Feature Value 1

OS:Space,
  {1241dcd3-b5d7-43ac-8e1e-5189f8f609e9}, !- Handle
  attic - vented 1,                       !- Name
  ,                                       !- Space Type Name
  ,                                       !- Default Construction Set Name
  ,                                       !- Default Schedule Set Name
  ,                                       !- Direction of Relative North {deg}
  ,                                       !- X Origin {m}
  ,                                       !- Y Origin {m}
  ,                                       !- Z Origin {m}
  ,                                       !- Building Story Name
  {37d75252-0d13-4bb6-8909-d2802a2a6cba}, !- Thermal Zone Name
  ,                                       !- Part of Total Floor Area
  ,                                       !- Design Specification Outdoor Air Object Name
  ,                                       !- Building Unit Name
  356.389957095237;                       !- Volume {m3}

OS:Material,
  {11b9672c-2259-4957-ac51-af55f07eb669}, !- Handle
  asphalt or fiberglass shingles,         !- Name
  Rough,                                  !- Roughness
  0.00635,                                !- Thickness {m}
  0.162714,                               !- Conductivity {W/m-K}
  1121.4,                                 !- Density {kg/m3}
  1465.45,                                !- Specific Heat {J/kg-K}
  0.9,                                    !- Thermal Absorptance
  0.85,                                   !- Solar Absorptance