
OS:Version,
  {10a3ed09-fe91-40d1-96f7-9cd5d27b2b58}, !- Handle
  3.10.0;                                 !- Version Identifier

OS:SimulationControl,
  {8a2efc66-e616-4b0b-b38e-5ebaeeb7ccc5}, !- Handle
  ,                                       !- Do Zone Sizing Calculation
  ,                                       !- Do System Sizing Calculation
  ,                                       !- Do Plant Sizing Calculation
  No;                                     !- Run Simulation for Sizing Periods

OS:Timestep,
  {3dce92f8-5201-44cc-bb86-f8f32c5c3324}, !- Handle
  1;                                      !- Number of Timesteps per Hour

OS:ShadowCalculation,
  {176adef4-a40c-4355-a453-f02d24c23b23}, !- Handle
  PolygonClipping,                        !- Shading Calculation Method
  ,                                       !- Shading Calculation Update Frequency Method
  20,                                     !- Shading Calculation Update Frequency
  200,                                    !- Maximum Figures in Shadow Overlap Calculations
  ,                                       !- Polygon Clipping Algorithm
  512,                                    !- Pixel Counting Resolution
  ,                                       !- Sky Diffuse Modeling Algorithm
  No,                                     !- Output External Shading Calculation Results
  No,                                     !- Disable Self-Shading Within Shading Zone Groups
  No;                                     !- Disable Self-Shading From Shading Zone Groups to Other Zones

OS:SurfaceConvectionAlgorithm:Outside,
  {1e24f52f-6e96-4084-95a6-97ef808ea003}, !- Handle
  DOE-2;                                  !- Algorithm

OS:SurfaceConvectionAlgorithm:Inside,
  {05e7c6a9-23d5-4f95-894e-0b6138abfcc1}, !- Handle
  TARP;                                   !- Algorithm

OS:ZoneCapacitanceMultiplier:ResearchSpecial,
  {0f9b4bd7-5adb-4b67-9176-f9b6bcc3a751}, !- Handle
  7,                                      !- Temperature Capacity Multiplier
  15,                                     !- Humidity Capacity Multiplier
  ;                                       !- Carbon Dioxide Capacity Multiplier

OS:ConvergenceLimits,
  {7e9d17a8-5c3b-40bc-841b-841d4083cb2e}, !- Handle
  0;                                      !- Minimum System Timestep {minutes}

OS:RunPeriod,
  {65ef4318-95e2-4b2a-8e41-76ab91e12f53}, !- Handle
  Run Period 1,                           !- Name
  1,                                      !- Begin Month
  1,                                      !- Begin Day of Month
  12,                                     !- End Month
  31,                                     !- End Day of Month
  ,                                       !- Use Weather File Holidays and Special Days
  ,                                       !- Use Weather File Daylight Saving Period
  ,                                       !- Apply Weekend Holiday Rule
  ,                                       !- Use Weather File Rain Indicators
  ,                                       !- Use Weather File Snow Indicators
  ;                                       !- Number of Times Runperiod to be Repeated

OS:PerformancePrecisionTradeoffs,
  {dc0ca0a5-e280-49fe-b629-eea1a243d207}, !- Handle
  ,                                       !- Use Coil Direct Solutions
  CarrollMRT;                             !- Zone Radiant Exchange Algorithm

OS:WeatherFile,
  {95fbd144-8325-47e6-a9c7-e87de604bcd9}, !- Handle
  Buffalo Niagara Intl Ap,                !- City
  NY,                                     !- State Province Region
  USA,                                    !- Country
  TMY3,                                   !- Data Source
  725280,                                 !- WMO Number
  42.93,                                  !- Latitude {deg}
  -78.73,                                 !- Longitude {deg}
  -5,                                     !- Time Zone {hr}
  215,                                    !- Elevation {m}
  /Users/nmoore/github/urbanopt-example-geojson-project/example_project/weather/USA_NY_Buffalo-Greater.Buffalo.Intl.AP.725280_TMY3.epw, !- Url
  6B50E0FF,                               !- Checksum
  ,                                       !- Start Date Actual Year
  Sunday;                                 !- Start Day of Week

OS:YearDescription,
  {af18f297-78c6-4a63-8ca4-39ef4f482bb8}, !- Handle
  2007,                                   !- Calendar Year
  ,                                       !- Day of Week for Start Day
  ;                                       !- Is Leap Year

OS:Site,
  {5dda67cf-40b7-4f40-af30-324f359f1b07}, !- Handle
  Buffalo Niagara Intl Ap_NY,             !- Name
  42.93,                                  !- Latitude {deg}
  -78.73,                                 !- Longitude {deg}
  -5,                                     !- Time Zone {hr}
  215,                                    !- Elevation {m}
  Suburbs,                                !- Terrain
  Yes;                                    !- Keep Site Location Information

OS:RunPeriodControl:DaylightSavingTime,
  {710bf3e7-8638-4430-953f-311e8b28640c}, !- Handle
  Mar 12,                                 !- Start Date
  Nov 5;                                  !- End Date

OS:Site:GroundTemperature:Shallow,
  {e4bad648-4e98-4777-b678-e750b8c21eaf}, !- Handle
  4.30207395723828,                       !- January Surface Ground Temperature {C}
  2.29327249652502,                       !- February Surface Ground Temperature {C}
  2.13240047156047,                       !- March Surface Ground Temperature {C}
  3.08567940719286,                       !- April Surface Ground Temperature {C}
  6.91256312497526,                       !- May Surface Ground Temperature {C}
  10.7216195949507,                       !- June Surface Ground Temperature {C}
  14.0238679822574,                       !- July Surface Ground Temperature {C}
  16.1157611184724,                       !- August Surface Ground Temperature {C}
  16.2934789303462,                       !- September Surface Ground Temperature {C}
  14.5920754632847,                       !- October Surface Ground Temperature {C}
  11.374036348653,                        !- November Surface Ground Temperature {C}
  7.68182621661674;                       !- December Surface Ground Temperature {C}

OS:ThermalZone,
  {c04885a4-9ebc-4a34-af35-a2b1c547415e}, !- Handle
  conditioned space,                      !- Name
  1,                                      !- Multiplier
  ,                                       !- Ceiling Height {m}
  692.06373070848,                        !- Volume {m3}
  ,                                       !- Floor Area {m2}
  ,                                       !- Zone Inside Convection Algorithm
  ,                                       !- Zone Outside Convection Algorithm
  ,                                       !- Zone Conditioning Equipment List Name
  {5f0d0878-a745-4fb4-9e4a-9f6cdd2e7494}, !- Zone Air Inlet Port List
  {d72688ee-2412-472d-8d69-f5ca15f80ad1}, !- Zone Air Exhaust Port List
  {0a5b3cd2-916a-4ce8-ac41-c724bfc1069d}, !- Zone Air Node Name
  {4de2e751-788d-49b0-90d7-9eb9b934d2b7}, !- Zone Return Air Port List
  ,                                       !- Primary Daylighting Control Name
  ,                                       !- Fraction of Zone Controlled by Primary Daylighting Control
  ,                                       !- Secondary Daylighting Control Name
  ,                                       !- Fraction of Zone Controlled by Secondary Daylighting Control
  ,                                       !- Illuminance Map Name
  ,                                       !- Group Rendering Name
  {7a090de1-1a9d-414d-88b3-dec64a6540f1}, !- Thermostat Name
  No;                                     !- Use Ideal Air Loads

OS:Node,
  {c1da7c78-02a7-44c1-aa2e-f074f5674214}, !- Handle
  Node 1,                                 !- Name
  {0a5b3cd2-916a-4ce8-ac41-c724bfc1069d}, !- Inlet Port
  ;                                       !- Outlet Port

OS:Connection,
  {0a5b3cd2-916a-4ce8-ac41-c724bfc1069d}, !- Handle
  {c04885a4-9ebc-4a34-af35-a2b1c547415e}, !- Source Object
  11,                                     !- Outlet Port
  {c1da7c78-02a7-44c1-aa2e-f074f5674214}, !- Target Object
  2;                                      !- Inlet Port

OS:PortList,
  {5f0d0878-a745-4fb4-9e4a-9f6cdd2e7494}, !- Handle
  {c04885a4-9ebc-4a34-af35-a2b1c547415e}, !- HVAC Component
  {e8efae29-265b-4e57-bf9e-1adeb7aedd7d}; !- Port 1

OS:PortList,
  {d72688ee-2412-472d-8d69-f5ca15f80ad1}, !- Handle
  {c04885a4-9ebc-4a34-af35-a2b1c547415e}; !- HVAC Component

OS:PortList,
  {4de2e751-788d-49b0-90d7-9eb9b934d2b7}, !- Handle
  {c04885a4-9ebc-4a34-af35-a2b1c547415e}, !- HVAC Component
  {42f1a65f-e268-4ee7-b54c-251d07974adc}; !- Port 1

OS:Sizing:Zone,
  {1c102524-7a0e-454a-b471-1c4b4b7d3c34}, !- Handle
  {c04885a4-9ebc-4a34-af35-a2b1c547415e}, !- Zone or ZoneList Name
  SupplyAirTemperature,                   !- Zone Cooling Design Supply Air Temperature Input Method
  14,                                     !- Zone Cooling Design Supply Air Temperature {C}
  11.11,                                  !- Zone Cooling Design Supply Air Temperature Difference {deltaC}
  SupplyAirTemperature,                   !- Zone Heating Design Supply Air Temperature Input Method
  40,                                     !- Zone Heating Design Supply Air Temperature {C}
  11.11,                                  !- Zone Heating Design Supply Air Temperature Difference {deltaC}
  0.0085,                                 !- Zone Cooling Design Supply Air Humidity Ratio {kg-H2O/kg-air}
  0.008,                                  !- Zone Heating Design Supply Air Humidity Ratio {kg-H2O/kg-air}
  ,                                       !- Zone Heating Sizing Factor
  ,                                       !- Zone Cooling Sizing Factor
  DesignDay,                              !- Cooling Design Air Flow Method
  ,                                       !- Cooling Design Air Flow Rate {m3/s}
  ,                                       !- Cooling Minimum Air Flow per Zone Floor Area {m3/s-m2}
  ,                                       !- Cooling Minimum Air Flow {m3/s}
  ,                                       !- Cooling Minimum Air Flow Fraction
  DesignDay,                              !- Heating Design Air Flow Method
  ,                                       !- Heating Design Air Flow Rate {m3/s}
  ,                                       !- Heating Maximum Air Flow per Zone Floor Area {m3/s-m2}
  ,                                       !- Heating Maximum Air Flow {m3/s}
  ,                                       !- Heating Maximum Air Flow Fraction
  No,                                     !- Account for Dedicated Outdoor Air System
  NeutralSupplyAir,                       !- Dedicated Outdoor Air System Control Strategy
  autosize,                               !- Dedicated Outdoor Air Low Setpoint Temperature for Design {C}
  autosize,                               !- Dedicated Outdoor Air High Setpoint Temperature for Design {C}
  Sensible Load Only No Latent Load,      !- Zone Load Sizing Method
  HumidityRatioDifference,                !- Zone Latent Cooling Design Supply Air Humidity Ratio Input Method
  ,                                       !- Zone Dehumidification Design Supply Air Humidity Ratio {kgWater/kgDryAir}
  0.005,                                  !- Zone Cooling Design Supply Air Humidity Ratio Difference {kgWater/kgDryAir}
  HumidityRatioDifference,                !- Zone Latent Heating Design Supply Air Humidity Ratio Input Method
  ,                                       !- Zone Humidification Design Supply Air Humidity Ratio {kgWater/kgDryAir}
  0.005,                                  !- Zone Humidification Design Supply Air Humidity Ratio Difference {kgWater/kgDryAir}
  ,                                       !- Zone Humidistat Dehumidification Set Point Schedule Name
  ,                                       !- Zone Humidistat Humidification Set Point Schedule Name
  ,                                       !- Design Zone Air Distribution Effectiveness in Cooling Mode
  ,                                       !- Design Zone Air Distribution Effectiveness in Heating Mode
  ,                                       !- Design Zone Secondary Recirculation Fraction {dimensionless}
  ,                                       !- Design Minimum Zone Ventilation Efficiency {dimensionless}
  Coincident;                             !- Sizing Option

OS:ZoneHVAC:EquipmentList,
  {08714a08-7369-4682-b277-bb86de818567}, !- Handle
  Zone HVAC Equipment List 1,             !- Name
  {c04885a4-9ebc-4a34-af35-a2b1c547415e}, !- Thermal Zone
  ,                                       !- Load Distribution Scheme
  {f5cf3a41-e0f0-4268-8d9e-5910197a5cb9}, !- Zone Equipment 1
  1,                                      !- Zone Equipment Cooling Sequence 1
  1,                                      !- Zone Equipment Heating or No-Load Sequence 1
  {9d741455-b2eb-41f7-82dd-df6225daedc9}, !- Zone Equipment Sequential Cooling Fraction Schedule Name 1
  {831f9e9f-347c-4632-8121-d65778b1331f}; !- Zone Equipment Sequential Heating Fraction Schedule Name 1

OS:AdditionalProperties,
  {8b3bafe9-0f91-4d88-89a9-cccd8f06aaa0}, !- Handle
  {c04885a4-9ebc-4a34-af35-a2b1c547415e}, !- Object Name
  ObjectType,                             !- Feature Name 1
  String,                                 !- Feature Data Type 1
  conditioned space;                      !- Feature Value 1

OS:Space,
  {06ec8917-868d-4a1e-ad4c-00ffd0145291}, !- Handle
  conditioned space 1,                    !- Name
  ,                                       !- Space Type Name
  ,                                       !- Default Construction Set Name
  ,                                       !- Default Schedule Set Name
  ,                                       !- Direction of Relative North {deg}
  ,                                       !- X Origin {m}
  ,                                       !- Y Origin {m}
  ,                                       !- Z Origin {m}
  ,                                       !- Building Story Name
  {c04885a4-9ebc-4a34-af35-a2b1c547415e}, !- Thermal Zone Name
  ,                                       !- Part of Total Floor Area
  ,                                       !- Design Specification Outdoor Air Object Name
  ,                                       !- Building Unit Name
  692.06373070848;                        !- Volume {m3}

OS:Schedule:Ruleset,
  {5a42cf09-45ea-4b3b-ad57-8e2a04f6991b}, !- Handle
  heating setpoint,                       !- Name
  {df1278f7-7065-47b5-a997-55e59b379027}, !- Schedule Type Limits Name
  {a66d5982-52f2-46d2-8028-fc346a35bdca}; !- Default Day Schedule Name

OS:Schedule:Day,
  {a66d5982-52f2-46d2-8028-fc346a35bdca}, !- Handle
  heating setpoint default day,           !- Name
  {df1278f7-7065-47b5-a997-55e59b379027}, !- Schedule Type Limits Name
  ,                                       !- Interpolate to Timestep
  24,                                     !- Hour 1
  0,                                      !- Minute 1
  0;                                      !- Value Until Time 1

OS:Schedule:Rule,
  {92c8390c-e8fa-4639-845c-f82d4bdd57a7}, !- Handle
  heating setpoint allday rule,           !- Name
  {5a42cf09-45ea-4b3b-ad57-8e2a04f6991b}, !- Schedule Ruleset Name
  0,                                      !- Rule Order
  {3e23b5b0-29e4-4058-b809-1a4641ffa4ec}, !- Day Schedule Name
  Yes,                                    !- Apply Sunday
  Yes,                                    !- Apply Monday
  Yes,                                    !- Apply Tuesday
  Yes,                                    !- Apply Wednesday
  Yes,                                    !- Apply Thursday
  Yes,                                    !- Apply Friday
  Yes,                                    !- Apply Saturday
  DateRange,                              !- Date Specification Type
  1,                                      !- Start Month
  1,                                      !- Start Day
  12,                                     !- End Month
  31;                                     !- End Day

OS:Schedule:Day,
  {3e23b5b0-29e4-4058-b809-1a4641ffa4ec}, !- Handle
  heating setpoint day,                   !- Name
  {df1278f7-7065-47b5-a997-55e59b379027}, !- Schedule Type Limits Name
  ,                                       !- Interpolate to Timestep
  24,                                     !- Hour 1
  0,                                      !- Minute 1
  20;                                     !- Value Until Time 1

OS:Schedule:Ruleset,
  {b8d025f2-b11f-43c5-a5fd-bead9a2b4c92}, !- Handle
  cooling setpoint,                       !- Name
  {df1278f7-7065-47b5-a997-55e59b379027}, !- Schedule Type Limits Name
  {658f7995-0b17-44ed-ac9e-d1779ab4bd1a}; !- Default Day Schedule Name

OS:Schedule:Day,
  {658f7995-0b17-44ed-ac9e-d1779ab4bd1a}, !- Handle
  cooling setpoint default day,           !- Name
  {df1278f7-7065-47b5-a997-55e59b379027}, !- Schedule Type Limits Name
  ,                                       !- Interpolate to Timestep
  24,                                     !- Hour 1
  0,                                      !- Minute 1
  0;                                      !- Value Until Time 1

OS:Schedule:Rule,
  {485e1b06-b40e-4dc6-8f1a-b62642b0179a}, !- Handle
  cooling setpoint allday rule,           !- Name
  {b8d025f2-b11f-43c5-a5fd-bead9a2b4c92}, !- Schedule Ruleset Name
  0,                                      !- Rule Order
  {4a59d4cf-cc13-49ad-8ed9-4775bdbb891f}, !- Day Schedule Name
  Yes,                                    !- Apply Sunday
  Yes,                                    !- Apply Monday
  Yes,                                    !- Apply Tuesday
  Yes,                                    !- Apply Wednesday
  Yes,                                    !- Apply Thursday
  Yes,                                    !- Apply Friday
  Yes,                                    !- Apply Saturday
  DateRange,                              !- Date Specification Type
  1,                                      !- Start Month
  1,                                      !- Start Day
  12,                                     !- End Month
  31;                                     !- End Day

OS:Schedule:Day,
  {4a59d4cf-cc13-49ad-8ed9-4775bdbb891f}, !- Handle
  cooling setpoint day,                   !- Name
  {df1278f7-7065-47b5-a997-55e59b379027}, !- Schedule Type Limits Name
  ,                                       !- Interpolate to Timestep
  24,                                     !- Hour 1
  0,                                      !- Minute 1
  25.5555555555556;                       !- Value Until Time 1

OS:ThermostatSetpoint:DualSetpoint,
  {7a090de1-1a9d-414d-88b3-dec64a6540f1}, !- Handle
  conditioned space temperature setpoint, !- Name
  {5a42cf09-45ea-4b3b-ad57-8e2a04f6991b}, !- Heating Setpoint Temperature Schedule Name
  {b8d025f2-b11f-43c5-a5fd-bead9a2b4c92}, !- Cooling Setpoint Temperature Schedule Name
  0;                                      !- Temperature Difference Between Cutout And Setpoint {deltaC}

OS:ScheduleTypeLimits,
  {df1278f7-7065-47b5-a997-55e59b379027}, !- Handle
  Temperature,                            !- Name
  ,                                       !- Lower Limit Value
  ,                                       !- Upper Limit Value
  Continuous,                             !- Numeric Type
  Temperature;                            !- Unit Type

OS:Surface,
  {010ad1e0-2551-44e3-aa10-eb900b4e8153}, !- Handle
  Roof1,                                  !- Name
  RoofCeiling,                            !- Surface Type
  {2c1c8374-fbae-4b05-a201-b41f5933d31c}, !- Construction Name
  {dbf296c0-4446-4d6d-b7d0-cbb49b32e544}, !- Space Name
  Outdoors,                               !- Outside Boundary Condition
  ,                                       !- Outside Boundary Condition Object
  SunExposed,                             !- Sun Exposure
  WindExposed,                            !- Wind Exposure
  ,                                       !- View Factor to Ground
  ,                                       !- Number of Vertices
  -26.9347048849634, 58.0557891618865, 2.4384, !- X,Y,Z Vertex 1 {m}
  -26.9347048849634, 46.7895631136661, 8.0715130241102, !- X,Y,Z Vertex 2 {m}
  -14.3386812381136, 46.7895631136661, 8.0715130241102, !- X,Y,Z Vertex 3 {m}
  -14.3386812381136, 58.0557891618865, 2.4384; !- X,Y,Z Vertex 4 {m}

OS:AdditionalProperties,
  {e3342ca7-d2b8-4e34-a6bb-a3eea2b05b2c}, !- Handle
  {010ad1e0-2551-44e3-aa10-eb900b4e8153}, !- Object Name
  Length,                                 !- Feature Name 1
  Double,                                 !- Feature Data Type 1
  41.325536899113608,                     !- Feature Value 1
  Width,                                  !- Feature Name 2
  Double,                                 !- Feature Data Type 2
  41.325536899113601,                     !- Feature Value 2
  Azimuth,                                !- Feature Name 3
  Integer,                                !- Feature Data Type 3
  0,                                      !- Feature Value 3
  Tilt,                                   !- Feature Name 4
  Double,                                 !- Feature Data Type 4
  0.5,                                    !- Feature Value 4
  SurfaceType,                            !- Feature Name 5
  String,                                 !- Feature Data Type 5
  Roof;                                   !- Feature Value 5

OS:ThermalZone,
  {168a6087-6c2c-47d3-aa04-f59b2f120f6b}, !- Handle
  attic - vented,                         !- Name
  1,                                      !- Multiplier
  ,                                       !- Ceiling Height {m}
  356.390921899745,                       !- Volume {m3}
  ,                                       !- Floor Area {m2}
  ,                                       !- Zone Inside Convection Algorithm
  ,                                       !- Zone Outside Convection Algorithm
  ,                                       !- Zone Conditioning Equipment List Name
  {78fa0e19-5ba6-4669-b676-cd06e2067264}, !- Zone Air Inlet Port List
  {739b99f1-1782-4af9-b10a-6f9a3f69fc73}, !- Zone Air Exhaust Port List
  {ec7b2769-96c2-4aaa-ad6f-62089a864964}, !- Zone Air Node Name
  {b29e9614-2b3f-4698-a169-57816dd42c44}, !- Zone Return Air Port List
  ,                                       !- Primary Daylighting Control Name
  ,                                       !- Fraction of Zone Controlled by Primary Daylighting Control
  ,                                       !- Secondary Daylighting Control Name
  ,                                       !- Fraction of Zone Controlled by Secondary Daylighting Control
  ,                                       !- Illuminance Map Name
  ,                                       !- Group Rendering Name
  ,                                       !- Thermostat Name
  No;                                     !- Use Ideal Air Loads

OS:Node,
  {0420b384-3b4e-41ab-a785-56d4a6fd4162}, !- Handle
  Node 2,                                 !- Name
  {ec7b2769-96c2-4aaa-ad6f-62089a864964}, !- Inlet Port
  ;                                       !- Outlet Port

OS:Connection,
  {ec7b2769-96c2-4aaa-ad6f-62089a864964}, !- Handle
  {168a6087-6c2c-47d3-aa04-f59b2f120f6b}, !- Source Object
  11,                                     !- Outlet Port
  {0420b384-3b4e-41ab-a785-56d4a6fd4162}, !- Target Object
  2;                                      !- Inlet Port

OS:PortList,
  {78fa0e19-5ba6-4669-b676-cd06e2067264}, !- Handle
  {168a6087-6c2c-47d3-aa04-f59b2f120f6b}; !- HVAC Component

OS:PortList,
  {739b99f1-1782-4af9-b10a-6f9a3f69fc73}, !- Handle
  {168a6087-6c2c-47d3-aa04-f59b2f120f6b}; !- HVAC Component

OS:PortList,
  {b29e9614-2b3f-4698-a169-57816dd42c44}, !- Handle
  {168a6087-6c2c-47d3-aa04-f59b2f120f6b}; !- HVAC Component

OS:Sizing:Zone,
  {a5c2eaf6-2c68-4e75-b560-a8db3d283aa9}, !- Handle
  {168a6087-6c2c-47d3-aa04-f59b2f120f6b}, !- Zone or ZoneList Name
  SupplyAirTemperature,                   !- Zone Cooling Design Supply Air Temperature Input Method
  14,                                     !- Zone Cooling Design Supply Air Temperature {C}
  11.11,                                  !- Zone Cooling Design Supply Air Temperature Difference {deltaC}
  SupplyAirTemperature,                   !- Zone Heating Design Supply Air Temperature Input Method
  40,                                     !- Zone Heating Design Supply Air Temperature {C}
  11.11,                                  !- Zone Heating Design Supply Air Temperature Difference {deltaC}
  0.0085,                                 !- Zone Cooling Design Supply Air Humidity Ratio {kg-H2O/kg-air}
  0.008,                                  !- Zone Heating Design Supply Air Humidity Ratio {kg-H2O/kg-air}
  ,                                       !- Zone Heating Sizing Factor
  ,                                       !- Zone Cooling Sizing Factor
  DesignDay,                              !- Cooling Design Air Flow Method
  ,                                       !- Cooling Design Air Flow Rate {m3/s}
  ,                                       !- Cooling Minimum Air Flow per Zone Floor Area {m3/s-m2}
  ,                                       !- Cooling Minimum Air Flow {m3/s}
  ,                                       !- Cooling Minimum Air Flow Fraction
  DesignDay,                              !- Heating Design Air Flow Method
  ,                                       !- Heating Design Air Flow Rate {m3/s}
  ,                                       !- Heating Maximum Air Flow per Zone Floor Area {m3/s-m2}
  ,                                       !- Heating Maximum Air Flow {m3/s}
  ,                                       !- Heating Maximum Air Flow Fraction
  No,                                     !- Account for Dedicated Outdoor Air System
  NeutralSupplyAir,                       !- Dedicated Outdoor Air System Control Strategy
  autosize,                               !- Dedicated Outdoor Air Low Setpoint Temperature for Design {C}
  autosize,                               !- Dedicated Outdoor Air High Setpoint Temperature for Design {C}
  Sensible Load Only No Latent Load,      !- Zone Load Sizing Method
  HumidityRatioDifference,                !- Zone Latent Cooling Design Supply Air Humidity Ratio Input Method
  ,                                       !- Zone Dehumidification Design Supply Air Humidity Ratio {kgWater/kgDryAir}
  0.005,                                  !- Zone Cooling Design Supply Air Humidity Ratio Difference {kgWater/kgDryAir}
  HumidityRatioDifference,                !- Zone Latent Heating Design Supply Air Humidity Ratio Input Method
  ,                                       !- Zone Humidification Design Supply Air Humidity Ratio {kgWater/kgDryAir}
  0.005,                                  !- Zone Humidification Design Supply Air Humidity Ratio Difference {kgWater/kgDryAir}
  ,                                       !- Zone Humidistat Dehumidification Set Point Schedule Name
  ,                                       !- Zone Humidistat Humidification Set Point Schedule Name
  ,                                       !- Design Zone Air Distribution Effectiveness in Cooling Mode
  ,                                       !- Design Zone Air Distribution Effectiveness in Heating Mode
  ,                                       !- Design Zone Secondary Recirculation Fraction {dimensionless}
  ,                                       !- Design Minimum Zone Ventilation Efficiency {dimensionless}
  Coincident;                             !- Sizing Option

OS:ZoneHVAC:EquipmentList,
  {d0850f90-b415-4a13-9de8-8f2ad38f5fab}, !- Handle
  Zone HVAC Equipment List 2,             !- Name
  {168a6087-6c2c-47d3-aa04-f59b2f120f6b}; !- Thermal Zone

OS:AdditionalProperties,
  {9430cb11-ba36-40b9-91ff-cf8725732212}, !- Handle
  {168a6087-6c2c-47d3-aa04-f59b2f120f6b}, !- Object Name
  ObjectType,                             !- Feature Name 1
  String,                                 !- Feature Data Type 1
  attic - vented;                         !- Feature Value 1

OS:Space,
  {dbf296c0-4446-4d6d-b7d0-cbb49b32e544}, !- Handle
  attic - vented 1,                       !- Name
  ,                                       !- Space Type Name
  ,                                       !- Default Construction Set Name
  ,                                       !- Default Schedule Set Name
  ,                                       !- Direction of Relative North {deg}
  ,                                       !- X Origin {m}
  ,                                       !- Y Origin {m}
  ,                                       !- Z Origin {m}
  ,                                       !- Building Story Name
  {168a6087-6c2c-47d3-aa04-f59b2f120f6b}, !- Thermal Zone Name
  ,                                       !- Part of Total Floor Area
  ,                                       !- Design Specification Outdoor Air Object Name
  ,                                       !- Building Unit Name
  356.390921899745;                       !- Volume {m3}

OS:Material,
  {4a761081-8e04-4390-907b-0cd86e7d4e96}, !- Handle
  asphalt or fiberglass shingles,         !- Name
  Rough,                                  !- Roughness
  0.00635,                                !- Thickness {m}
  0.162714,                               !- Conductivity {W/m-K}
  1121.4,                                 !- Density {kg/m3}
  1465.45,                                !- Specific Heat {J/kg-K}
  0.9,                                    !- Thermal Absorptance
  0.85,                                   !- Solar Absorptance