
OS:Version,
  {f35f5f41-e47d-40ec-a256-846e129119e4}, !- Handle
  3.10.0;                                 !- Version Identifier

OS:SimulationControl,
  {ec1f61bc-8438-42b2-882f-0f48bcc5ba07}, !- Handle
  ,                                       !- Do Zone Sizing Calculation
  ,                                       !- Do System Sizing Calculation
  ,                                       !- Do Plant Sizing Calculation
  No;                                     !- Run Simulation for Sizing Periods

OS:Timestep,
  {28d10ded-4874-4c6a-a981-bef749518688}, !- Handle
  1;                                      !- Number of Timesteps per Hour

OS:ShadowCalculation,
  {0e689f24-4ab3-4040-8180-85197593c331}, !- Handle
  PolygonClipping,                        !- Shading Calculation Method
  ,                                       !- Shading Calculation Update Frequency Method
  20,                                     !- Shading Calculation Update Frequency
  200,                                    !- Maximum Figures in Shadow Overlap Calculations
  ,                                       !- Polygon Clipping Algorithm
  512,                                    !- Pixel Counting Resolution
  ,                                       !- Sky Diffuse Modeling Algorithm
  No,                                     !- Output External Shading Calculation Results
  No,                                     !- Disable Self-Shading Within Shading Zone Groups
  No;                                     !- Disable Self-Shading From Shading Zone Groups to Other Zones

OS:SurfaceConvectionAlgorithm:Outside,
  {dc7e975b-dca8-41c7-abe8-cd6687f43926}, !- Handle
  DOE-2;                                  !- Algorithm

OS:SurfaceConvectionAlgorithm:Inside,
  {1c19f02a-8de2-4445-9d55-600956505ad4}, !- Handle
  TARP;                                   !- Algorithm

OS:ZoneCapacitanceMultiplier:ResearchSpecial,
  {bcee5afa-920e-42e1-9174-1d5ef8702617}, !- Handle
  7,                                      !- Temperature Capacity Multiplier
  15,                                     !- Humidity Capacity Multiplier
  ;                                       !- Carbon Dioxide Capacity Multiplier

OS:ConvergenceLimits,
  {b5cfaa59-9ab7-431f-9c7b-983e4aef1e62}, !- Handle
  0;                                      !- Minimum System Timestep {minutes}

OS:RunPeriod,
  {fd4074ce-30b0-48fb-bec5-593c7f7880c6}, !- Handle
  Run Period 1,                           !- Name
  1,                                      !- Begin Month
  1,                                      !- Begin Day of Month
  12,                                     !- End Month
  31,                                     !- End Day of Month
  ,                                       !- Use Weather File Holidays and Special Days
  ,                                       !- Use Weather File Daylight Saving Period
  ,                                       !- Apply Weekend Holiday Rule
  ,                                       !- Use Weather File Rain Indicators
  ,                                       !- Use Weather File Snow Indicators
  ;                                       !- Number of Times Runperiod to be Repeated

OS:PerformancePrecisionTradeoffs,
  {1a42078d-45c2-4529-87c4-46f8555f47d0}, !- Handle
  ,                                       !- Use Coil Direct Solutions
  CarrollMRT;                             !- Zone Radiant Exchange Algorithm

OS:WeatherFile,
  {0c9a2906-4286-483c-83b3-3e646d5ce63c}, !- Handle
  Buffalo Niagara Intl Ap,                !- City
  NY,                                     !- State Province Region
  USA,                                    !- Country
  TMY3,                                   !- Data Source
  725280,                                 !- WMO Number
  42.93,                                  !- Latitude {deg}
  -78.73,                                 !- Longitude {deg}
  -5,                                     !- Time Zone {hr}
  215,                                    !- Elevation {m}
  /Users/nmoore/github/urbanopt-example-geojson-project/example_project/weather/USA_NY_Buffalo-Greater.Buffalo.Intl.AP.725280_TMY3.epw, !- Url
  6B50E0FF,                               !- Checksum
  ,                                       !- Start Date Actual Year
  Sunday;                                 !- Start Day of Week

OS:YearDescription,
  {4864ff76-87b5-49f8-b541-86f7043dff60}, !- Handle
  2007,                                   !- Calendar Year
  ,                                       !- Day of Week for Start Day
  ;                                       !- Is Leap Year

OS:Site,
  {36ad1e45-59c6-4a42-8788-c81620cb1c72}, !- Handle
  Buffalo Niagara Intl Ap_NY,             !- Name
  42.93,                                  !- Latitude {deg}
  -78.73,                                 !- Longitude {deg}
  -5,                                     !- Time Zone {hr}
  215,                                    !- Elevation {m}
  Suburbs,                                !- Terrain
  Yes;                                    !- Keep Site Location Information

OS:RunPeriodControl:DaylightSavingTime,
  {4f0ba1f2-b1af-4ecc-ae68-b9961a6c251a}, !- Handle
  Mar 12,                                 !- Start Date
  Nov 5;                                  !- End Date

OS:Site:GroundTemperature:Shallow,
  {2ee940de-6203-456d-bb7b-a504e1215743}, !- Handle
  4.30207395723828,                       !- January Surface Ground Temperature {C}
  2.29327249652502,                       !- February Surface Ground Temperature {C}
  2.13240047156047,                       !- March Surface Ground Temperature {C}
  3.08567940719286,                       !- April Surface Ground Temperature {C}
  6.91256312497526,                       !- May Surface Ground Temperature {C}
  10.7216195949507,                       !- June Surface Ground Temperature {C}
  14.0238679822574,                       !- July Surface Ground Temperature {C}
  16.1157611184724,                       !- August Surface Ground Temperature {C}
  16.2934789303462,                       !- September Surface Ground Temperature {C}
  14.5920754632847,                       !- October Surface Ground Temperature {C}
  11.374036348653,                        !- November Surface Ground Temperature {C}
  7.68182621661674;                       !- December Surface Ground Temperature {C}

OS:ThermalZone,
  {4bd91f12-2795-4f97-83ba-37bf78892783}, !- Handle
  conditioned space,                      !- Name
  1,                                      !- Multiplier
  ,                                       !- Ceiling Height {m}
  692.06373070848,                        !- Volume {m3}
  ,                                       !- Floor Area {m2}
  ,                                       !- Zone Inside Convection Algorithm
  ,                                       !- Zone Outside Convection Algorithm
  ,                                       !- Zone Conditioning Equipment List Name
  {4aaa5296-d109-4456-8184-e26f975bd53b}, !- Zone Air Inlet Port List
  {4bfab824-a6ae-4636-8ff4-ae6c794f8648}, !- Zone Air Exhaust Port List
  {80931549-6cdd-4396-a8ae-cf564b2aea15}, !- Zone Air Node Name
  {293f12bb-82a1-40da-8c27-7ec96d776720}, !- Zone Return Air Port List
  ,                                       !- Primary Daylighting Control Name
  ,                                       !- Fraction of Zone Controlled by Primary Daylighting Control
  ,                                       !- Secondary Daylighting Control Name
  ,                                       !- Fraction of Zone Controlled by Secondary Daylighting Control
  ,                                       !- Illuminance Map Name
  ,                                       !- Group Rendering Name
  {9f7fb25a-097e-4eb7-867c-c281464f68d9}, !- Thermostat Name
  No;                                     !- Use Ideal Air Loads

OS:Node,
  {1fbbe692-c0b4-4157-9d91-51fd4c3c7321}, !- Handle
  Node 1,                                 !- Name
  {80931549-6cdd-4396-a8ae-cf564b2aea15}, !- Inlet Port
  ;                                       !- Outlet Port

OS:Connection,
  {80931549-6cdd-4396-a8ae-cf564b2aea15}, !- Handle
  {4bd91f12-2795-4f97-83ba-37bf78892783}, !- Source Object
  11,                                     !- Outlet Port
  {1fbbe692-c0b4-4157-9d91-51fd4c3c7321}, !- Target Object
  2;                                      !- Inlet Port

OS:PortList,
  {4aaa5296-d109-4456-8184-e26f975bd53b}, !- Handle
  {4bd91f12-2795-4f97-83ba-37bf78892783}, !- HVAC Component
  {3063f8eb-e91e-4f5d-bd1c-164b28c2ffe8}; !- Port 1

OS:PortList,
  {4bfab824-a6ae-4636-8ff4-ae6c794f8648}, !- Handle
  {4bd91f12-2795-4f97-83ba-37bf78892783}; !- HVAC Component

OS:PortList,
  {293f12bb-82a1-40da-8c27-7ec96d776720}, !- Handle
  {4bd91f12-2795-4f97-83ba-37bf78892783}, !- HVAC Component
  {5588481d-ec6c-4c97-88a6-4a3e47ff6b88}; !- Port 1

OS:Sizing:Zone,
  {bdc84c9a-4d3d-4568-99cc-8f0e237d59a6}, !- Handle
  {4bd91f12-2795-4f97-83ba-37bf78892783}, !- Zone or ZoneList Name
  SupplyAirTemperature,                   !- Zone Cooling Design Supply Air Temperature Input Method
  14,                                     !- Zone Cooling Design Supply Air Temperature {C}
  11.11,                                  !- Zone Cooling Design Supply Air Temperature Difference {deltaC}
  SupplyAirTemperature,                   !- Zone Heating Design Supply Air Temperature Input Method
  40,                                     !- Zone Heating Design Supply Air Temperature {C}
  11.11,                                  !- Zone Heating Design Supply Air Temperature Difference {deltaC}
  0.0085,                                 !- Zone Cooling Design Supply Air Humidity Ratio {kg-H2O/kg-air}
  0.008,                                  !- Zone Heating Design Supply Air Humidity Ratio {kg-H2O/kg-air}
  ,                                       !- Zone Heating Sizing Factor
  ,                                       !- Zone Cooling Sizing Factor
  DesignDay,                              !- Cooling Design Air Flow Method
  ,                                       !- Cooling Design Air Flow Rate {m3/s}
  ,                                       !- Cooling Minimum Air Flow per Zone Floor Area {m3/s-m2}
  ,                                       !- Cooling Minimum Air Flow {m3/s}
  ,                                       !- Cooling Minimum Air Flow Fraction
  DesignDay,                              !- Heating Design Air Flow Method
  ,                                       !- Heating Design Air Flow Rate {m3/s}
  ,                                       !- Heating Maximum Air Flow per Zone Floor Area {m3/s-m2}
  ,                                       !- Heating Maximum Air Flow {m3/s}
  ,                                       !- Heating Maximum Air Flow Fraction
  No,                                     !- Account for Dedicated Outdoor Air System
  NeutralSupplyAir,                       !- Dedicated Outdoor Air System Control Strategy
  autosize,                               !- Dedicated Outdoor Air Low Setpoint Temperature for Design {C}
  autosize,                               !- Dedicated Outdoor Air High Setpoint Temperature for Design {C}
  Sensible Load Only No Latent Load,      !- Zone Load Sizing Method
  HumidityRatioDifference,                !- Zone Latent Cooling Design Supply Air Humidity Ratio Input Method
  ,                                       !- Zone Dehumidification Design Supply Air Humidity Ratio {kgWater/kgDryAir}
  0.005,                                  !- Zone Cooling Design Supply Air Humidity Ratio Difference {kgWater/kgDryAir}
  HumidityRatioDifference,                !- Zone Latent Heating Design Supply Air Humidity Ratio Input Method
  ,                                       !- Zone Humidification Design Supply Air Humidity Ratio {kgWater/kgDryAir}
  0.005,                                  !- Zone Humidification Design Supply Air Humidity Ratio Difference {kgWater/kgDryAir}
  ,                                       !- Zone Humidistat Dehumidification Set Point Schedule Name
  ,                                       !- Zone Humidistat Humidification Set Point Schedule Name
  ,                                       !- Design Zone Air Distribution Effectiveness in Cooling Mode
  ,                                       !- Design Zone Air Distribution Effectiveness in Heating Mode
  ,                                       !- Design Zone Secondary Recirculation Fraction {dimensionless}
  ,                                       !- Design Minimum Zone Ventilation Efficiency {dimensionless}
  Coincident;                             !- Sizing Option

OS:ZoneHVAC:EquipmentList,
  {570690e5-354e-4adf-877e-51577d23b984}, !- Handle
  Zone HVAC Equipment List 1,             !- Name
  {4bd91f12-2795-4f97-83ba-37bf78892783}, !- Thermal Zone
  ,                                       !- Load Distribution Scheme
  {b1cec8a1-a2aa-41a2-a0b3-63524e110567}, !- Zone Equipment 1
  1,                                      !- Zone Equipment Cooling Sequence 1
  1,                                      !- Zone Equipment Heating or No-Load Sequence 1
  {df91911d-5364-4148-bae1-3226ffec98e9}, !- Zone Equipment Sequential Cooling Fraction Schedule Name 1
  {2dda0533-e566-4b92-8f04-e83f73bc4dd6}, !- Zone Equipment Sequential Heating Fraction Schedule Name 1
  {0f154af4-8904-4ff3-80e2-90b8c9092a17}, !- Zone Equipment 2
  2,                                      !- Zone Equipment Cooling Sequence 2
  2,                                      !- Zone Equipment Heating or No-Load Sequence 2
  {004a1263-3905-42b5-8eae-d0a61e62b9f4}, !- Zone Equipment Sequential Cooling Fraction Schedule Name 2
  {86a92f99-9f52-4d96-8197-13ad78e31ef8}; !- Zone Equipment Sequential Heating Fraction Schedule Name 2

OS:AdditionalProperties,
  {b72feb53-fd97-409d-b80a-f3596b108d69}, !- Handle
  {4bd91f12-2795-4f97-83ba-37bf78892783}, !- Object Name
  ObjectType,                             !- Feature Name 1
  String,                                 !- Feature Data Type 1
  conditioned space;                      !- Feature Value 1

OS:Space,
  {56f2fc60-56d6-47c2-a699-193762e43ef0}, !- Handle
  conditioned space 1,                    !- Name
  ,                                       !- Space Type Name
  ,                                       !- Default Construction Set Name
  ,                                       !- Default Schedule Set Name
  ,                                       !- Direction of Relative North {deg}
  ,                                       !- X Origin {m}
  ,                                       !- Y Origin {m}
  ,                                       !- Z Origin {m}
  ,                                       !- Building Story Name
  {4bd91f12-2795-4f97-83ba-37bf78892783}, !- Thermal Zone Name
  ,                                       !- Part of Total Floor Area
  ,                                       !- Design Specification Outdoor Air Object Name
  ,                                       !- Building Unit Name
  692.06373070848;                        !- Volume {m3}

OS:Schedule:Ruleset,
  {63f07d6e-131a-4703-a04f-355b5eb79a2d}, !- Handle
  heating setpoint,                       !- Name
  {3dfc0dd0-bd8b-4e7e-bc03-d6b9c4309951}, !- Schedule Type Limits Name
  {37969c30-72c2-4bd6-b447-66486054a42e}; !- Default Day Schedule Name

OS:Schedule:Day,
  {37969c30-72c2-4bd6-b447-66486054a42e}, !- Handle
  heating setpoint default day,           !- Name
  {3dfc0dd0-bd8b-4e7e-bc03-d6b9c4309951}, !- Schedule Type Limits Name
  ,                                       !- Interpolate to Timestep
  24,                                     !- Hour 1
  0,                                      !- Minute 1
  0;                                      !- Value Until Time 1

OS:Schedule:Rule,
  {6b33750a-6b07-45ba-9339-f083532aa711}, !- Handle
  heating setpoint allday rule,           !- Name
  {63f07d6e-131a-4703-a04f-355b5eb79a2d}, !- Schedule Ruleset Name
  0,                                      !- Rule Order
  {3c78d7a4-ac59-4ed6-9aa8-11ea1c549986}, !- Day Schedule Name
  Yes,                                    !- Apply Sunday
  Yes,                                    !- Apply Monday
  Yes,                                    !- Apply Tuesday
  Yes,                                    !- Apply Wednesday
  Yes,                                    !- Apply Thursday
  Yes,                                    !- Apply Friday
  Yes,                                    !- Apply Saturday
  DateRange,                              !- Date Specification Type
  1,                                      !- Start Month
  1,                                      !- Start Day
  12,                                     !- End Month
  31;                                     !- End Day

OS:Schedule:Day,
  {3c78d7a4-ac59-4ed6-9aa8-11ea1c549986}, !- Handle
  heating setpoint day,                   !- Name
  {3dfc0dd0-bd8b-4e7e-bc03-d6b9c4309951}, !- Schedule Type Limits Name
  ,                                       !- Interpolate to Timestep
  24,                                     !- Hour 1
  0,                                      !- Minute 1
  20;                                     !- Value Until Time 1

OS:Schedule:Ruleset,
  {75021afb-92a4-4e97-8a2f-f73680883d92}, !- Handle
  cooling setpoint,                       !- Name
  {3dfc0dd0-bd8b-4e7e-bc03-d6b9c4309951}, !- Schedule Type Limits Name
  {9a680866-5d48-4f7c-975e-0253c9e7d7f8}; !- Default Day Schedule Name

OS:Schedule:Day,
  {9a680866-5d48-4f7c-975e-0253c9e7d7f8}, !- Handle
  cooling setpoint default day,           !- Name
  {3dfc0dd0-bd8b-4e7e-bc03-d6b9c4309951}, !- Schedule Type Limits Name
  ,                                       !- Interpolate to Timestep
  24,                                     !- Hour 1
  0,                                      !- Minute 1
  0;                                      !- Value Until Time 1

OS:Schedule:Rule,
  {d7dfaa74-b894-494b-83de-f098e391acd0}, !- Handle
  cooling setpoint allday rule,           !- Name
  {75021afb-92a4-4e97-8a2f-f73680883d92}, !- Schedule Ruleset Name
  0,                                      !- Rule Order
  {036d8e26-e40f-4a8c-bf4c-f42800b2fde1}, !- Day Schedule Name
  Yes,                                    !- Apply Sunday
  Yes,                                    !- Apply Monday
  Yes,                                    !- Apply Tuesday
  Yes,                                    !- Apply Wednesday
  Yes,                                    !- Apply Thursday
  Yes,                                    !- Apply Friday
  Yes,                                    !- Apply Saturday
  DateRange,                              !- Date Specification Type
  1,                                      !- Start Month
  1,                                      !- Start Day
  12,                                     !- End Month
  31;                                     !- End Day

OS:Schedule:Day,
  {036d8e26-e40f-4a8c-bf4c-f42800b2fde1}, !- Handle
  cooling setpoint day,                   !- Name
  {3dfc0dd0-bd8b-4e7e-bc03-d6b9c4309951}, !- Schedule Type Limits Name
  ,                                       !- Interpolate to Timestep
  24,                                     !- Hour 1
  0,                                      !- Minute 1
  25.5555555555556;                       !- Value Until Time 1

OS:ThermostatSetpoint:DualSetpoint,
  {9f7fb25a-097e-4eb7-867c-c281464f68d9}, !- Handle
  conditioned space temperature setpoint, !- Name
  {63f07d6e-131a-4703-a04f-355b5eb79a2d}, !- Heating Setpoint Temperature Schedule Name
  {75021afb-92a4-4e97-8a2f-f73680883d92}, !- Cooling Setpoint Temperature Schedule Name
  0;                                      !- Temperature Difference Between Cutout And Setpoint {deltaC}

OS:ScheduleTypeLimits,
  {3dfc0dd0-bd8b-4e7e-bc03-d6b9c4309951}, !- Handle
  Temperature,                            !- Name
  ,                                       !- Lower Limit Value
  ,                                       !- Upper Limit Value
  Continuous,                             !- Numeric Type
  Temperature;                            !- Unit Type

OS:Surface,
  {f03f0675-f097-428a-9c11-8a0c4b651d8e}, !- Handle
  Roof1,                                  !- Name
  RoofCeiling,                            !- Surface Type
  {35d54fa0-8df8-47d8-94da-4c9505ba063c}, !- Construction Name
  {e99d7b61-880c-4143-b0f9-8ff3013a07c5}, !- Space Name
  Outdoors,                               !- Outside Boundary Condition
  ,                                       !- Outside Boundary Condition Object
  SunExposed,                             !- Sun Exposure
  WindExposed,                            !- Wind Exposure
  ,                                       !- View Factor to Ground
  ,                                       !- Number of Vertices
  -26.9347048849634, 58.0557891618865, 2.4384, !- X,Y,Z Vertex 1 {m}
  -26.9347048849634, 46.7895631136661, 8.0715130241102, !- X,Y,Z Vertex 2 {m}
  -14.3386812381136, 46.7895631136661, 8.0715130241102, !- X,Y,Z Vertex 3 {m}
  -14.3386812381136, 58.0557891618865, 2.4384; !- X,Y,Z Vertex 4 {m}

OS:AdditionalProperties,
  {defd0d93-40e4-4484-af3d-8084ac46ce34}, !- Handle
  {f03f0675-f097-428a-9c11-8a0c4b651d8e}, !- Object Name
  Length,                                 !- Feature Name 1
  Double,                                 !- Feature Data Type 1
  41.325536899113608,                     !- Feature Value 1
  Width,                                  !- Feature Name 2
  Double,                                 !- Feature Data Type 2
  41.325536899113601,                     !- Feature Value 2
  Azimuth,                                !- Feature Name 3
  Integer,                                !- Feature Data Type 3
  0,                                      !- Feature Value 3
  Tilt,                                   !- Feature Name 4
  Double,                                 !- Feature Data Type 4
  0.5,                                    !- Feature Value 4
  SurfaceType,                            !- Feature Name 5
  String,                                 !- Feature Data Type 5
  Roof;                                   !- Feature Value 5

OS:ThermalZone,
  {b2702e12-cb29-40c8-8042-5c83a70edae5}, !- Handle
  attic - vented,                         !- Name
  1,                                      !- Multiplier
  ,                                       !- Ceiling Height {m}
  356.390921899745,                       !- Volume {m3}
  ,                                       !- Floor Area {m2}
  ,                                       !- Zone Inside Convection Algorithm
  ,                                       !- Zone Outside Convection Algorithm
  ,                                       !- Zone Conditioning Equipment List Name
  {fd460b9f-877e-4c76-b782-27b42b3837f9}, !- Zone Air Inlet Port List
  {7c311b7b-0d18-4fcd-8ac7-695a91985e7f}, !- Zone Air Exhaust Port List
  {0a65dbab-6362-423b-9bcf-099402442fec}, !- Zone Air Node Name
  {b737c8c4-a93b-4e23-96ce-db1d5c5746f6}, !- Zone Return Air Port List
  ,                                       !- Primary Daylighting Control Name
  ,                                       !- Fraction of Zone Controlled by Primary Daylighting Control
  ,                                       !- Secondary Daylighting Control Name
  ,                                       !- Fraction of Zone Controlled by Secondary Daylighting Control
  ,                                       !- Illuminance Map Name
  ,                                       !- Group Rendering Name
  ,                                       !- Thermostat Name
  No;                                     !- Use Ideal Air Loads

OS:Node,
  {e7d932ad-a0c7-46fd-ad64-4a8ee57486d0}, !- Handle
  Node 2,                                 !- Name
  {0a65dbab-6362-423b-9bcf-099402442fec}, !- Inlet Port
  ;                                       !- Outlet Port

OS:Connection,
  {0a65dbab-6362-423b-9bcf-099402442fec}, !- Handle
  {b2702e12-cb29-40c8-8042-5c83a70edae5}, !- Source Object
  11,                                     !- Outlet Port
  {e7d932ad-a0c7-46fd-ad64-4a8ee57486d0}, !- Target Object
  2;                                      !- Inlet Port

OS:PortList,
  {fd460b9f-877e-4c76-b782-27b42b3837f9}, !- Handle
  {b2702e12-cb29-40c8-8042-5c83a70edae5}; !- HVAC Component

OS:PortList,
  {7c311b7b-0d18-4fcd-8ac7-695a91985e7f}, !- Handle
  {b2702e12-cb29-40c8-8042-5c83a70edae5}; !- HVAC Component

OS:PortList,
  {b737c8c4-a93b-4e23-96ce-db1d5c5746f6}, !- Handle
  {b2702e12-cb29-40c8-8042-5c83a70edae5}; !- HVAC Component

OS:Sizing:Zone,
  {316f0580-749f-48f7-92f9-43e07d865835}, !- Handle
  {b2702e12-cb29-40c8-8042-5c83a70edae5}, !- Zone or ZoneList Name
  SupplyAirTemperature,                   !- Zone Cooling Design Supply Air Temperature Input Method
  14,                                     !- Zone Cooling Design Supply Air Temperature {C}
  11.11,                                  !- Zone Cooling Design Supply Air Temperature Difference {deltaC}
  SupplyAirTemperature,                   !- Zone Heating Design Supply Air Temperature Input Method
  40,                                     !- Zone Heating Design Supply Air Temperature {C}
  11.11,                                  !- Zone Heating Design Supply Air Temperature Difference {deltaC}
  0.0085,                                 !- Zone Cooling Design Supply Air Humidity Ratio {kg-H2O/kg-air}
  0.008,                                  !- Zone Heating Design Supply Air Humidity Ratio {kg-H2O/kg-air}
  ,                                       !- Zone Heating Sizing Factor
  ,                                       !- Zone Cooling Sizing Factor
  DesignDay,                              !- Cooling Design Air Flow Method
  ,                                       !- Cooling Design Air Flow Rate {m3/s}
  ,                                       !- Cooling Minimum Air Flow per Zone Floor Area {m3/s-m2}
  ,                                       !- Cooling Minimum Air Flow {m3/s}
  ,                                       !- Cooling Minimum Air Flow Fraction
  DesignDay,                              !- Heating Design Air Flow Method
  ,                                       !- Heating Design Air Flow Rate {m3/s}
  ,                                       !- Heating Maximum Air Flow per Zone Floor Area {m3/s-m2}
  ,                                       !- Heating Maximum Air Flow {m3/s}
  ,                                       !- Heating Maximum Air Flow Fraction
  No,                                     !- Account for Dedicated Outdoor Air System
  NeutralSupplyAir,                       !- Dedicated Outdoor Air System Control Strategy
  autosize,                               !- Dedicated Outdoor Air Low Setpoint Temperature for Design {C}
  autosize,                               !- Dedicated Outdoor Air High Setpoint Temperature for Design {C}
  Sensible Load Only No Latent Load,      !- Zone Load Sizing Method
  HumidityRatioDifference,                !- Zone Latent Cooling Design Supply Air Humidity Ratio Input Method
  ,                                       !- Zone Dehumidification Design Supply Air Humidity Ratio {kgWater/kgDryAir}
  0.005,                                  !- Zone Cooling Design Supply Air Humidity Ratio Difference {kgWater/kgDryAir}
  HumidityRatioDifference,                !- Zone Latent Heating Design Supply Air Humidity Ratio Input Method
  ,                                       !- Zone Humidification Design Supply Air Humidity Ratio {kgWater/kgDryAir}
  0.005,                                  !- Zone Humidification Design Supply Air Humidity Ratio Difference {kgWater/kgDryAir}
  ,                                       !- Zone Humidistat Dehumidification Set Point Schedule Name
  ,                                       !- Zone Humidistat Humidification Set Point Schedule Name
  ,                                       !- Design Zone Air Distribution Effectiveness in Cooling Mode
  ,                                       !- Design Zone Air Distribution Effectiveness in Heating Mode
  ,                                       !- Design Zone Secondary Recirculation Fraction {dimensionless}
  ,                                       !- Design Minimum Zone Ventilation Efficiency {dimensionless}
  Coincident;                             !- Sizing Option

OS:ZoneHVAC:EquipmentList,
  {d2b1184b-91ea-4d05-bf10-408b16c5ddbc}, !- Handle
  Zone HVAC Equipment List 2,             !- Name
  {b2702e12-cb29-40c8-8042-5c83a70edae5}; !- Thermal Zone

OS:AdditionalProperties,
  {5953d8bb-0b6e-4847-840e-7923ec279482}, !- Handle
  {b2702e12-cb29-40c8-8042-5c83a70edae5}, !- Object Name
  ObjectType,                             !- Feature Name 1
  String,                                 !- Feature Data Type 1
  attic - vented;                         !- Feature Value 1

OS:Space,
  {e99d7b61-880c-4143-b0f9-8ff3013a07c5}, !- Handle
  attic - vented 1,                       !- Name
  ,                                       !- Space Type Name
  ,                                       !- Default Construction Set Name
  ,                                       !- Default Schedule Set Name
  ,                                       !- Direction of Relative North {deg}
  ,                                       !- X Origin {m}
  ,                                       !- Y Origin {m}
  ,                                       !- Z Origin {m}
  ,                                       !- Building Story Name
  {b2702e12-cb29-40c8-8042-5c83a70edae5}, !- Thermal Zone Name
  ,                                       !- Part of Total Floor Area
  ,                                       !- Design Specification Outdoor Air Object Name
  ,                                       !- Building Unit Name
  356.390921899745;                       !- Volume {m3}

OS:Material,
  {8b23b325-bbd4-420a-b8a5-ce4b76a5ebfc}, !- Handle
  asphalt or fiberglass shingles,         !- Name