
OS:Version,
  {10d072a2-29a5-49c1-a71a-81db39e2548e}, !- Handle
  3.9.0;                                  !- Version Identifier

OS:SimulationControl,
  {32dfe08f-bdf8-4b87-8a3b-3e1f500a3c98}, !- Handle
  ,                                       !- Do Zone Sizing Calculation
  ,                                       !- Do System Sizing Calculation
  ,                                       !- Do Plant Sizing Calculation
  No;                                     !- Run Simulation for Sizing Periods

OS:Timestep,
  {e67522b1-4fe1-4cba-9ec6-38df3179162e}, !- Handle
  1;                                      !- Number of Timesteps per Hour

OS:ShadowCalculation,
  {5084e1e9-d18e-48cd-9754-76b1888240ed}, !- Handle
  PolygonClipping,                        !- Shading Calculation Method
  ,                                       !- Shading Calculation Update Frequency Method
  20,                                     !- Shading Calculation Update Frequency
  200,                                    !- Maximum Figures in Shadow Overlap Calculations
  ,                                       !- Polygon Clipping Algorithm
  512,                                    !- Pixel Counting Resolution
  ,                                       !- Sky Diffuse Modeling Algorithm
  No,                                     !- Output External Shading Calculation Results
  No,                                     !- Disable Self-Shading Within Shading Zone Groups
  No;                                     !- Disable Self-Shading From Shading Zone Groups to Other Zones

OS:SurfaceConvectionAlgorithm:Outside,
  {8ca2f067-c024-4262-ba48-cfc85da152c9}, !- Handle
  DOE-2;                                  !- Algorithm

OS:SurfaceConvectionAlgorithm:Inside,
  {6acbff20-b283-4ede-ad4b-a33c93222144}, !- Handle
  TARP;                                   !- Algorithm

OS:ZoneCapacitanceMultiplier:ResearchSpecial,
  {64ba5e75-36ee-4bf3-828e-1f5206215e6c}, !- Handle
  7,                                      !- Temperature Capacity Multiplier
  15,                                     !- Humidity Capacity Multiplier
  ;                                       !- Carbon Dioxide Capacity Multiplier

OS:ConvergenceLimits,
  {76f0c620-e894-43f5-8fa5-b864744953a6}, !- Handle
  0;                                      !- Minimum System Timestep {minutes}

OS:RunPeriod,
  {2fb826fc-6e02-4f1a-8351-bb5b71c9f55c}, !- Handle
  Run Period 1,                           !- Name
  1,                                      !- Begin Month
  1,                                      !- Begin Day of Month
  12,                                     !- End Month
  31,                                     !- End Day of Month
  ,                                       !- Use Weather File Holidays and Special Days
  ,                                       !- Use Weather File Daylight Saving Period
  ,                                       !- Apply Weekend Holiday Rule
  ,                                       !- Use Weather File Rain Indicators
  ,                                       !- Use Weather File Snow Indicators
  ;                                       !- Number of Times Runperiod to be Repeated

OS:PerformancePrecisionTradeoffs,
  {f60802f8-4348-49d0-a47e-eb1a25c3f985}, !- Handle
  ,                                       !- Use Coil Direct Solutions
  CarrollMRT;                             !- Zone Radiant Exchange Algorithm

OS:WeatherFile,
  {f8f7017f-118b-4083-86b6-7757df5f7f6d}, !- Handle
  Buffalo Niagara Intl Ap,                !- City
  NY,                                     !- State Province Region
  USA,                                    !- Country
  TMY3,                                   !- Data Source
  725280,                                 !- WMO Number
  42.93,                                  !- Latitude {deg}
  -78.73,                                 !- Longitude {deg}
  -5,                                     !- Time Zone {hr}
  215,                                    !- Elevation {m}
  /Users/nmoore/github/urbanopt-example-geojson-project/example_project/weather/USA_NY_Buffalo-Greater.Buffalo.Intl.AP.725280_TMY3.epw, !- Url
  6B50E0FF,                               !- Checksum
  ,                                       !- Start Date Actual Year
  Sunday;                                 !- Start Day of Week

OS:YearDescription,
  {ec1551dc-b053-42fc-b860-34053aa06606}, !- Handle
  2007,                                   !- Calendar Year
  ,                                       !- Day of Week for Start Day
  ;                                       !- Is Leap Year

OS:Site,
  {fa713ac7-1b15-46c1-a29b-6dcb7040ff36}, !- Handle
  Buffalo Niagara Intl Ap_NY,             !- Name
  42.93,                                  !- Latitude {deg}
  -78.73,                                 !- Longitude {deg}
  -5,                                     !- Time Zone {hr}
  215,                                    !- Elevation {m}
  Suburbs,                                !- Terrain
  Yes;                                    !- Keep Site Location Information

OS:RunPeriodControl:DaylightSavingTime,
  {f390d0d6-f989-456c-aba7-df3826de8c66}, !- Handle
  Mar 12,                                 !- Start Date
  Nov 5;                                  !- End Date

OS:Site:GroundTemperature:Shallow,
  {795c6214-dc75-4155-a469-669fd2fd0a5f}, !- Handle
  4.30207395723828,                       !- January Surface Ground Temperature {C}
  2.29327249652502,                       !- February Surface Ground Temperature {C}
  2.13240047156047,                       !- March Surface Ground Temperature {C}
  3.08567940719286,                       !- April Surface Ground Temperature {C}
  6.91256312497526,                       !- May Surface Ground Temperature {C}
  10.7216195949507,                       !- June Surface Ground Temperature {C}
  14.0238679822574,                       !- July Surface Ground Temperature {C}
  16.1157611184724,                       !- August Surface Ground Temperature {C}
  16.2934789303462,                       !- September Surface Ground Temperature {C}
  14.5920754632847,                       !- October Surface Ground Temperature {C}
  11.374036348653,                        !- November Surface Ground Temperature {C}
  7.68182621661674;                       !- December Surface Ground Temperature {C}

OS:ThermalZone,
  {c74c3e5e-0b8a-4e24-9870-ae2d8734cbe5}, !- Handle
  conditioned space,                      !- Name
  1,                                      !- Multiplier
  ,                                       !- Ceiling Height {m}
  692.06373070848,                        !- Volume {m3}
  ,                                       !- Floor Area {m2}
  ,                                       !- Zone Inside Convection Algorithm
  ,                                       !- Zone Outside Convection Algorithm
  ,                                       !- Zone Conditioning Equipment List Name
  {8f9b8d2e-6f51-43a4-a61b-07d5fe6dfb9c}, !- Zone Air Inlet Port List
  {38025825-3cbb-4ba9-a69b-40ad972e9ed5}, !- Zone Air Exhaust Port List
  {1e9e7e19-4351-48a8-96fc-54b23008cb2a}, !- Zone Air Node Name
  {7b14cd89-08b6-4a70-9a07-e9373334522a}, !- Zone Return Air Port List
  ,                                       !- Primary Daylighting Control Name
  ,                                       !- Fraction of Zone Controlled by Primary Daylighting Control
  ,                                       !- Secondary Daylighting Control Name
  ,                                       !- Fraction of Zone Controlled by Secondary Daylighting Control
  ,                                       !- Illuminance Map Name
  ,                                       !- Group Rendering Name
  {2ac9f851-d1b4-4efd-9974-a59c446e7dca}, !- Thermostat Name
  No;                                     !- Use Ideal Air Loads

OS:Node,
  {de10404b-3046-49c2-b481-b185a31b8cf0}, !- Handle
  Node 1,                                 !- Name
  {1e9e7e19-4351-48a8-96fc-54b23008cb2a}, !- Inlet Port
  ;                                       !- Outlet Port

OS:Connection,
  {1e9e7e19-4351-48a8-96fc-54b23008cb2a}, !- Handle
  {c74c3e5e-0b8a-4e24-9870-ae2d8734cbe5}, !- Source Object
  11,                                     !- Outlet Port
  {de10404b-3046-49c2-b481-b185a31b8cf0}, !- Target Object
  2;                                      !- Inlet Port

OS:PortList,
  {8f9b8d2e-6f51-43a4-a61b-07d5fe6dfb9c}, !- Handle
  {c74c3e5e-0b8a-4e24-9870-ae2d8734cbe5}, !- HVAC Component
  {bc84845e-d435-4763-b291-45fd20dda1c2}; !- Port 1

OS:PortList,
  {38025825-3cbb-4ba9-a69b-40ad972e9ed5}, !- Handle
  {c74c3e5e-0b8a-4e24-9870-ae2d8734cbe5}; !- HVAC Component

OS:PortList,
  {7b14cd89-08b6-4a70-9a07-e9373334522a}, !- Handle
  {c74c3e5e-0b8a-4e24-9870-ae2d8734cbe5}, !- HVAC Component
  {ecc03710-94b2-48bf-b27d-fb831e9c0496}; !- Port 1

OS:Sizing:Zone,
  {962f0c79-bbdb-4fb8-85b2-490c6c42f569}, !- Handle
  {c74c3e5e-0b8a-4e24-9870-ae2d8734cbe5}, !- Zone or ZoneList Name
  SupplyAirTemperature,                   !- Zone Cooling Design Supply Air Temperature Input Method
  14,                                     !- Zone Cooling Design Supply Air Temperature {C}
  11.11,                                  !- Zone Cooling Design Supply Air Temperature Difference {deltaC}
  SupplyAirTemperature,                   !- Zone Heating Design Supply Air Temperature Input Method
  40,                                     !- Zone Heating Design Supply Air Temperature {C}
  11.11,                                  !- Zone Heating Design Supply Air Temperature Difference {deltaC}
  0.0085,                                 !- Zone Cooling Design Supply Air Humidity Ratio {kg-H2O/kg-air}
  0.008,                                  !- Zone Heating Design Supply Air Humidity Ratio {kg-H2O/kg-air}
  ,                                       !- Zone Heating Sizing Factor
  ,                                       !- Zone Cooling Sizing Factor
  DesignDay,                              !- Cooling Design Air Flow Method
  ,                                       !- Cooling Design Air Flow Rate {m3/s}
  ,                                       !- Cooling Minimum Air Flow per Zone Floor Area {m3/s-m2}
  ,                                       !- Cooling Minimum Air Flow {m3/s}
  ,                                       !- Cooling Minimum Air Flow Fraction
  DesignDay,                              !- Heating Design Air Flow Method
  ,                                       !- Heating Design Air Flow Rate {m3/s}
  ,                                       !- Heating Maximum Air Flow per Zone Floor Area {m3/s-m2}
  ,                                       !- Heating Maximum Air Flow {m3/s}
  ,                                       !- Heating Maximum Air Flow Fraction
  No,                                     !- Account for Dedicated Outdoor Air System
  NeutralSupplyAir,                       !- Dedicated Outdoor Air System Control Strategy
  autosize,                               !- Dedicated Outdoor Air Low Setpoint Temperature for Design {C}
  autosize,                               !- Dedicated Outdoor Air High Setpoint Temperature for Design {C}
  Sensible Load Only No Latent Load,      !- Zone Load Sizing Method
  HumidityRatioDifference,                !- Zone Latent Cooling Design Supply Air Humidity Ratio Input Method
  ,                                       !- Zone Dehumidification Design Supply Air Humidity Ratio {kgWater/kgDryAir}
  0.005,                                  !- Zone Cooling Design Supply Air Humidity Ratio Difference {kgWater/kgDryAir}
  HumidityRatioDifference,                !- Zone Latent Heating Design Supply Air Humidity Ratio Input Method
  ,                                       !- Zone Humidification Design Supply Air Humidity Ratio {kgWater/kgDryAir}
  0.005,                                  !- Zone Humidification Design Supply Air Humidity Ratio Difference {kgWater/kgDryAir}
  ,                                       !- Zone Humidistat Dehumidification Set Point Schedule Name
  ,                                       !- Zone Humidistat Humidification Set Point Schedule Name
  ,                                       !- Design Zone Air Distribution Effectiveness in Cooling Mode
  ,                                       !- Design Zone Air Distribution Effectiveness in Heating Mode
  ,                                       !- Design Zone Secondary Recirculation Fraction {dimensionless}
  ,                                       !- Design Minimum Zone Ventilation Efficiency {dimensionless}
  Coincident;                             !- Sizing Option

OS:ZoneHVAC:EquipmentList,
  {ebfc7532-5df6-4cb1-b587-038cae1de390}, !- Handle
  Zone HVAC Equipment List 1,             !- Name
  {c74c3e5e-0b8a-4e24-9870-ae2d8734cbe5}, !- Thermal Zone
  ,                                       !- Load Distribution Scheme
  {90f813c3-b7f7-407a-b06b-b0ada17fe0ea}, !- Zone Equipment 1
  1,                                      !- Zone Equipment Cooling Sequence 1
  1,                                      !- Zone Equipment Heating or No-Load Sequence 1
  {5c333bc0-ce30-4164-99f2-937a6d845333}, !- Zone Equipment Sequential Cooling Fraction Schedule Name 1
  {b1c2b987-fd21-421b-98b7-25912a87ebfa}, !- Zone Equipment Sequential Heating Fraction Schedule Name 1
  {b7e95d88-593d-4151-856c-b643de9b1338}, !- Zone Equipment 2
  2,                                      !- Zone Equipment Cooling Sequence 2
  2,                                      !- Zone Equipment Heating or No-Load Sequence 2
  {49cb7134-7617-46d9-9e27-899b7ae56ec6}, !- Zone Equipment Sequential Cooling Fraction Schedule Name 2
  {c0098847-5321-4c20-a760-fb35915726a2}; !- Zone Equipment Sequential Heating Fraction Schedule Name 2

OS:AdditionalProperties,
  {6a94ebdf-cda6-4705-805b-e78a804e43fe}, !- Handle
  {c74c3e5e-0b8a-4e24-9870-ae2d8734cbe5}, !- Object Name
  ObjectType,                             !- Feature Name 1
  String,                                 !- Feature Data Type 1
  conditioned space;                      !- Feature Value 1

OS:Space,
  {ec95f65d-a662-4939-94bb-ced810b3485c}, !- Handle
  conditioned space 1,                    !- Name
  ,                                       !- Space Type Name
  ,                                       !- Default Construction Set Name
  ,                                       !- Default Schedule Set Name
  ,                                       !- Direction of Relative North {deg}
  ,                                       !- X Origin {m}
  ,                                       !- Y Origin {m}
  ,                                       !- Z Origin {m}
  ,                                       !- Building Story Name
  {c74c3e5e-0b8a-4e24-9870-ae2d8734cbe5}, !- Thermal Zone Name
  ,                                       !- Part of Total Floor Area
  ,                                       !- Design Specification Outdoor Air Object Name
  ,                                       !- Building Unit Name
  692.06373070848;                        !- Volume {m3}

OS:Schedule:Ruleset,
  {df7b4144-6e66-4de0-81cf-bca4fe019882}, !- Handle
  heating setpoint,                       !- Name
  {855aa247-eeb3-4283-9d3c-659b31232f0d}, !- Schedule Type Limits Name
  {aba20c9a-d2f2-43f0-8b5e-78687037953b}; !- Default Day Schedule Name

OS:Schedule:Day,
  {aba20c9a-d2f2-43f0-8b5e-78687037953b}, !- Handle
  heating setpoint default day,           !- Name
  {855aa247-eeb3-4283-9d3c-659b31232f0d}, !- Schedule Type Limits Name
  ,                                       !- Interpolate to Timestep
  24,                                     !- Hour 1
  0,                                      !- Minute 1
  0;                                      !- Value Until Time 1

OS:Schedule:Rule,
  {e301ced3-a7e5-4248-a79d-c01700a16435}, !- Handle
  heating setpoint allday rule,           !- Name
  {df7b4144-6e66-4de0-81cf-bca4fe019882}, !- Schedule Ruleset Name
  0,                                      !- Rule Order
  {9f0ce2c6-d446-41a2-bd3b-a1ec32193162}, !- Day Schedule Name
  Yes,                                    !- Apply Sunday
  Yes,                                    !- Apply Monday
  Yes,                                    !- Apply Tuesday
  Yes,                                    !- Apply Wednesday
  Yes,                                    !- Apply Thursday
  Yes,                                    !- Apply Friday
  Yes,                                    !- Apply Saturday
  DateRange,                              !- Date Specification Type
  1,                                      !- Start Month
  1,                                      !- Start Day
  12,                                     !- End Month
  31;                                     !- End Day

OS:Schedule:Day,
  {9f0ce2c6-d446-41a2-bd3b-a1ec32193162}, !- Handle
  heating setpoint day,                   !- Name
  {855aa247-eeb3-4283-9d3c-659b31232f0d}, !- Schedule Type Limits Name
  ,                                       !- Interpolate to Timestep
  24,                                     !- Hour 1
  0,                                      !- Minute 1
  20;                                     !- Value Until Time 1

OS:Schedule:Ruleset,
  {a6e37675-bc94-407a-a5bc-45d1c6ba1865}, !- Handle
  cooling setpoint,                       !- Name
  {855aa247-eeb3-4283-9d3c-659b31232f0d}, !- Schedule Type Limits Name
  {44d59175-256c-4442-a570-a1baa43c1f35}; !- Default Day Schedule Name

OS:Schedule:Day,
  {44d59175-256c-4442-a570-a1baa43c1f35}, !- Handle
  cooling setpoint default day,           !- Name
  {855aa247-eeb3-4283-9d3c-659b31232f0d}, !- Schedule Type Limits Name
  ,                                       !- Interpolate to Timestep
  24,                                     !- Hour 1
  0,                                      !- Minute 1
  0;                                      !- Value Until Time 1

OS:Schedule:Rule,
  {35343b1a-1f4a-46a9-bc0b-4359ef635c2f}, !- Handle
  cooling setpoint allday rule,           !- Name
  {a6e37675-bc94-407a-a5bc-45d1c6ba1865}, !- Schedule Ruleset Name
  0,                                      !- Rule Order
  {b260cf3a-fa3c-4031-94d8-99fec58d16d1}, !- Day Schedule Name
  Yes,                                    !- Apply Sunday
  Yes,                                    !- Apply Monday
  Yes,                                    !- Apply Tuesday
  Yes,                                    !- Apply Wednesday
  Yes,                                    !- Apply Thursday
  Yes,                                    !- Apply Friday
  Yes,                                    !- Apply Saturday
  DateRange,                              !- Date Specification Type
  1,                                      !- Start Month
  1,                                      !- Start Day
  12,                                     !- End Month
  31;                                     !- End Day

OS:Schedule:Day,
  {b260cf3a-fa3c-4031-94d8-99fec58d16d1}, !- Handle
  cooling setpoint day,                   !- Name
  {855aa247-eeb3-4283-9d3c-659b31232f0d}, !- Schedule Type Limits Name
  ,                                       !- Interpolate to Timestep
  24,                                     !- Hour 1
  0,                                      !- Minute 1
  25.5555555555556;                       !- Value Until Time 1

OS:ThermostatSetpoint:DualSetpoint,
  {2ac9f851-d1b4-4efd-9974-a59c446e7dca}, !- Handle
  conditioned space temperature setpoint, !- Name
  {df7b4144-6e66-4de0-81cf-bca4fe019882}, !- Heating Setpoint Temperature Schedule Name
  {a6e37675-bc94-407a-a5bc-45d1c6ba1865}, !- Cooling Setpoint Temperature Schedule Name
  0;                                      !- Temperature Difference Between Cutout And Setpoint {deltaC}

OS:ScheduleTypeLimits,
  {855aa247-eeb3-4283-9d3c-659b31232f0d}, !- Handle
  Temperature,                            !- Name
  ,                                       !- Lower Limit Value
  ,                                       !- Upper Limit Value
  Continuous,                             !- Numeric Type
  Temperature;                            !- Unit Type

OS:Surface,
  {9b8d16ae-3c17-4fad-877c-af48e02b3efa}, !- Handle
  Roof1,                                  !- Name
  RoofCeiling,                            !- Surface Type
  {5699a3b7-6ea5-457e-8a4f-1d27fc70ff6f}, !- Construction Name
  {b4236f36-b7b1-4432-834c-0863f08df8a3}, !- Space Name
  Outdoors,                               !- Outside Boundary Condition
  ,                                       !- Outside Boundary Condition Object
  SunExposed,                             !- Sun Exposure
  WindExposed,                            !- Wind Exposure
  ,                                       !- View Factor to Ground
  ,                                       !- Number of Vertices
  -26.9347048849634, 58.0557891618865, 2.4384, !- X,Y,Z Vertex 1 {m}
  -26.9347048849634, 46.7895631136661, 8.0715130241102, !- X,Y,Z Vertex 2 {m}
  -14.3386812381136, 46.7895631136661, 8.0715130241102, !- X,Y,Z Vertex 3 {m}
  -14.3386812381136, 58.0557891618865, 2.4384; !- X,Y,Z Vertex 4 {m}

OS:AdditionalProperties,
  {335fa91c-b0f6-4e52-bae2-1ffe5c149207}, !- Handle
  {9b8d16ae-3c17-4fad-877c-af48e02b3efa}, !- Object Name
  Length,                                 !- Feature Name 1
  Double,                                 !- Feature Data Type 1
  41.325536899113608,                     !- Feature Value 1
  Width,                                  !- Feature Name 2
  Double,                                 !- Feature Data Type 2
  41.325536899113601,                     !- Feature Value 2
  Azimuth,                                !- Feature Name 3
  Integer,                                !- Feature Data Type 3
  0,                                      !- Feature Value 3
  Tilt,                                   !- Feature Name 4
  Double,                                 !- Feature Data Type 4
  0.5,                                    !- Feature Value 4
  SurfaceType,                            !- Feature Name 5
  String,                                 !- Feature Data Type 5
  Roof;                                   !- Feature Value 5

OS:ThermalZone,
  {428076e4-11f5-49f7-9d15-1ea0d89008c4}, !- Handle
  attic - vented,                         !- Name
  1,                                      !- Multiplier
  ,                                       !- Ceiling Height {m}
  356.389957095237,                       !- Volume {m3}
  ,                                       !- Floor Area {m2}
  ,                                       !- Zone Inside Convection Algorithm
  ,                                       !- Zone Outside Convection Algorithm
  ,                                       !- Zone Conditioning Equipment List Name
  {9c3aa19c-8652-44ab-8e81-6b110e0b2186}, !- Zone Air Inlet Port List
  {d3defae5-f24c-4cf8-afb3-43975c1fcc40}, !- Zone Air Exhaust Port List
  {b9bef159-4ffd-4d0f-9f1d-021163125632}, !- Zone Air Node Name
  {80942ec1-b20a-4730-838a-aecf7fe119f0}, !- Zone Return Air Port List
  ,                                       !- Primary Daylighting Control Name
  ,                                       !- Fraction of Zone Controlled by Primary Daylighting Control
  ,                                       !- Secondary Daylighting Control Name
  ,                                       !- Fraction of Zone Controlled by Secondary Daylighting Control
  ,                                       !- Illuminance Map Name
  ,                                       !- Group Rendering Name
  ,                                       !- Thermostat Name
  No;                                     !- Use Ideal Air Loads

OS:Node,
  {2ac32c6a-4879-4ba1-84e3-26f21d4fa6a3}, !- Handle
  Node 2,                                 !- Name
  {b9bef159-4ffd-4d0f-9f1d-021163125632}, !- Inlet Port
  ;                                       !- Outlet Port

OS:Connection,
  {b9bef159-4ffd-4d0f-9f1d-021163125632}, !- Handle
  {428076e4-11f5-49f7-9d15-1ea0d89008c4}, !- Source Object
  11,                                     !- Outlet Port
  {2ac32c6a-4879-4ba1-84e3-26f21d4fa6a3}, !- Target Object
  2;                                      !- Inlet Port

OS:PortList,
  {9c3aa19c-8652-44ab-8e81-6b110e0b2186}, !- Handle
  {428076e4-11f5-49f7-9d15-1ea0d89008c4}; !- HVAC Component

OS:PortList,
  {d3defae5-f24c-4cf8-afb3-43975c1fcc40}, !- Handle
  {428076e4-11f5-49f7-9d15-1ea0d89008c4}; !- HVAC Component

OS:PortList,
  {80942ec1-b20a-4730-838a-aecf7fe119f0}, !- Handle
  {428076e4-11f5-49f7-9d15-1ea0d89008c4}; !- HVAC Component

OS:Sizing:Zone,
  {5cdd8d08-16b9-4148-87e8-3be81b8c019e}, !- Handle
  {428076e4-11f5-49f7-9d15-1ea0d89008c4}, !- Zone or ZoneList Name
  SupplyAirTemperature,                   !- Zone Cooling Design Supply Air Temperature Input Method
  14,                                     !- Zone Cooling Design Supply Air Temperature {C}
  11.11,                                  !- Zone Cooling Design Supply Air Temperature Difference {deltaC}
  SupplyAirTemperature,                   !- Zone Heating Design Supply Air Temperature Input Method
  40,                                     !- Zone Heating Design Supply Air Temperature {C}
  11.11,                                  !- Zone Heating Design Supply Air Temperature Difference {deltaC}
  0.0085,                                 !- Zone Cooling Design Supply Air Humidity Ratio {kg-H2O/kg-air}
  0.008,                                  !- Zone Heating Design Supply Air Humidity Ratio {kg-H2O/kg-air}
  ,                                       !- Zone Heating Sizing Factor
  ,                                       !- Zone Cooling Sizing Factor
  DesignDay,                              !- Cooling Design Air Flow Method
  ,                                       !- Cooling Design Air Flow Rate {m3/s}
  ,                                       !- Cooling Minimum Air Flow per Zone Floor Area {m3/s-m2}
  ,                                       !- Cooling Minimum Air Flow {m3/s}
  ,                                       !- Cooling Minimum Air Flow Fraction
  DesignDay,                              !- Heating Design Air Flow Method
  ,                                       !- Heating Design Air Flow Rate {m3/s}
  ,                                       !- Heating Maximum Air Flow per Zone Floor Area {m3/s-m2}
  ,                                       !- Heating Maximum Air Flow {m3/s}
  ,                                       !- Heating Maximum Air Flow Fraction
  No,                                     !- Account for Dedicated Outdoor Air System
  NeutralSupplyAir,                       !- Dedicated Outdoor Air System Control Strategy
  autosize,                               !- Dedicated Outdoor Air Low Setpoint Temperature for Design {C}
  autosize,                               !- Dedicated Outdoor Air High Setpoint Temperature for Design {C}
  Sensible Load Only No Latent Load,      !- Zone Load Sizing Method
  HumidityRatioDifference,                !- Zone Latent Cooling Design Supply Air Humidity Ratio Input Method
  ,                                       !- Zone Dehumidification Design Supply Air Humidity Ratio {kgWater/kgDryAir}
  0.005,                                  !- Zone Cooling Design Supply Air Humidity Ratio Difference {kgWater/kgDryAir}
  HumidityRatioDifference,                !- Zone Latent Heating Design Supply Air Humidity Ratio Input Method
  ,                                       !- Zone Humidification Design Supply Air Humidity Ratio {kgWater/kgDryAir}
  0.005,                                  !- Zone Humidification Design Supply Air Humidity Ratio Difference {kgWater/kgDryAir}
  ,                                       !- Zone Humidistat Dehumidification Set Point Schedule Name
  ,                                       !- Zone Humidistat Humidification Set Point Schedule Name
  ,                                       !- Design Zone Air Distribution Effectiveness in Cooling Mode
  ,                                       !- Design Zone Air Distribution Effectiveness in Heating Mode
  ,                                       !- Design Zone Secondary Recirculation Fraction {dimensionless}
  ,                                       !- Design Minimum Zone Ventilation Efficiency {dimensionless}
  Coincident;                             !- Sizing Option

OS:ZoneHVAC:EquipmentList,
  {679e7223-50db-4a48-92cd-ceaa52728cfa}, !- Handle
  Zone HVAC Equipment List 2,             !- Name
  {428076e4-11f5-49f7-9d15-1ea0d89008c4}; !- Thermal Zone

OS:AdditionalProperties,
  {aa88f583-2de3-43fe-be61-3e1d9c963a55}, !- Handle
  {428076e4-11f5-49f7-9d15-1ea0d89008c4}, !- Object Name
  ObjectType,                             !- Feature Name 1
  String,                                 !- Feature Data Type 1
  attic - vented;                         !- Feature Value 1

OS:Space,
  {b4236f36-b7b1-4432-834c-0863f08df8a3}, !- Handle
  attic - vented 1,                       !- Name
  ,                                       !- Space Type Name
  ,                                       !- Default Construction Set Name
  ,                                       !- Default Schedule Set Name
  ,                                       !- Direction of Relative North {deg}
  ,                                       !- X Origin {m}
  ,                                       !- Y Origin {m}
  ,                                       !- Z Origin {m}
  ,                                       !- Building Story Name
  {428076e4-11f5-49f7-9d15-1ea0d89008c4}, !- Thermal Zone Name
  ,                                       !- Part of Total Floor Area
  ,                                       !- Design Specification Outdoor Air Object Name
  ,                                       !- Building Unit Name
  356.389957095237;                       !- Volume {m3}

OS:Material,
  {576365a0-a473-4243-a0cd-3e18fa376a52}, !- Handle
  asphalt or fiberglass shingles,         !- Name