
OS:Version,
  {3358ac74-c9d7-42ac-aaa1-1fa3a1f66302}, !- Handle
  3.10.0;                                 !- Version Identifier

OS:SimulationControl,
  {a2094bfe-27e7-4486-a61a-7573c0b6bcc5}, !- Handle
  ,                                       !- Do Zone Sizing Calculation
  ,                                       !- Do System Sizing Calculation
  ,                                       !- Do Plant Sizing Calculation
  No;                                     !- Run Simulation for Sizing Periods

OS:Timestep,
  {b763eba3-bfd5-49ae-832c-02e9dc09fb40}, !- Handle
  1;                                      !- Number of Timesteps per Hour

OS:ShadowCalculation,
  {c9e07ab6-3696-4e0a-969d-416944878472}, !- Handle
  PolygonClipping,                        !- Shading Calculation Method
  ,                                       !- Shading Calculation Update Frequency Method
  20,                                     !- Shading Calculation Update Frequency
  200,                                    !- Maximum Figures in Shadow Overlap Calculations
  ,                                       !- Polygon Clipping Algorithm
  512,                                    !- Pixel Counting Resolution
  ,                                       !- Sky Diffuse Modeling Algorithm
  No,                                     !- Output External Shading Calculation Results
  No,                                     !- Disable Self-Shading Within Shading Zone Groups
  No;                                     !- Disable Self-Shading From Shading Zone Groups to Other Zones

OS:SurfaceConvectionAlgorithm:Outside,
  {9a290887-18f7-4ea3-8acc-3953532bcc98}, !- Handle
  DOE-2;                                  !- Algorithm

OS:SurfaceConvectionAlgorithm:Inside,
  {3e41c015-0c63-4e65-acf9-260e5b202297}, !- Handle
  TARP;                                   !- Algorithm

OS:ZoneCapacitanceMultiplier:ResearchSpecial,
  {82e3c7fc-5232-4d8b-99d6-1c0945daf618}, !- Handle
  7,                                      !- Temperature Capacity Multiplier
  15,                                     !- Humidity Capacity Multiplier
  ;                                       !- Carbon Dioxide Capacity Multiplier

OS:ConvergenceLimits,
  {91143ee4-a013-48c7-9fce-d81293fc65c5}, !- Handle
  0;                                      !- Minimum System Timestep {minutes}

OS:RunPeriod,
  {edb130a0-525f-455c-a6f0-5dd51f290dcf}, !- Handle
  Run Period 1,                           !- Name
  1,                                      !- Begin Month
  1,                                      !- Begin Day of Month
  12,                                     !- End Month
  31,                                     !- End Day of Month
  ,                                       !- Use Weather File Holidays and Special Days
  ,                                       !- Use Weather File Daylight Saving Period
  ,                                       !- Apply Weekend Holiday Rule
  ,                                       !- Use Weather File Rain Indicators
  ,                                       !- Use Weather File Snow Indicators
  ;                                       !- Number of Times Runperiod to be Repeated

OS:PerformancePrecisionTradeoffs,
  {468c19e6-f4be-4632-863a-281e03d2e6bb}, !- Handle
  ,                                       !- Use Coil Direct Solutions
  CarrollMRT;                             !- Zone Radiant Exchange Algorithm

OS:WeatherFile,
  {e802cbaf-29e5-44db-a2e4-3f883a646373}, !- Handle
  Buffalo Niagara Intl Ap,                !- City
  NY,                                     !- State Province Region
  USA,                                    !- Country
  TMY3,                                   !- Data Source
  725280,                                 !- WMO Number
  42.93,                                  !- Latitude {deg}
  -78.73,                                 !- Longitude {deg}
  -5,                                     !- Time Zone {hr}
  215,                                    !- Elevation {m}
  /Users/nmoore/github/urbanopt-example-geojson-project/example_project/weather/USA_NY_Buffalo-Greater.Buffalo.Intl.AP.725280_TMY3.epw, !- Url
  6B50E0FF,                               !- Checksum
  ,                                       !- Start Date Actual Year
  Sunday;                                 !- Start Day of Week

OS:YearDescription,
  {58c7a9a4-abe1-48f0-901b-3f93f51fe1f2}, !- Handle
  2007,                                   !- Calendar Year
  ,                                       !- Day of Week for Start Day
  ;                                       !- Is Leap Year

OS:Site,
  {b918c74c-fb75-4f81-bc4b-04a6ecc2cbd3}, !- Handle
  Buffalo Niagara Intl Ap_NY,             !- Name
  42.93,                                  !- Latitude {deg}
  -78.73,                                 !- Longitude {deg}
  -5,                                     !- Time Zone {hr}
  215,                                    !- Elevation {m}
  Suburbs,                                !- Terrain
  Yes;                                    !- Keep Site Location Information

OS:RunPeriodControl:DaylightSavingTime,
  {8aa149f5-6aac-4ecc-bd1d-bd8afb61d165}, !- Handle
  Mar 12,                                 !- Start Date
  Nov 5;                                  !- End Date

OS:Site:GroundTemperature:Shallow,
  {04ac5b8f-2e53-4bce-9f5b-cbcf69e806bd}, !- Handle
  4.30207395723828,                       !- January Surface Ground Temperature {C}
  2.29327249652502,                       !- February Surface Ground Temperature {C}
  2.13240047156047,                       !- March Surface Ground Temperature {C}
  3.08567940719286,                       !- April Surface Ground Temperature {C}
  6.91256312497526,                       !- May Surface Ground Temperature {C}
  10.7216195949507,                       !- June Surface Ground Temperature {C}
  14.0238679822574,                       !- July Surface Ground Temperature {C}
  16.1157611184724,                       !- August Surface Ground Temperature {C}
  16.2934789303462,                       !- September Surface Ground Temperature {C}
  14.5920754632847,                       !- October Surface Ground Temperature {C}
  11.374036348653,                        !- November Surface Ground Temperature {C}
  7.68182621661674;                       !- December Surface Ground Temperature {C}

OS:ThermalZone,
  {fe7e0f6f-aef9-47eb-ba66-a723a259d2ad}, !- Handle
  conditioned space,                      !- Name
  1,                                      !- Multiplier
  ,                                       !- Ceiling Height {m}
  692.06373070848,                        !- Volume {m3}
  ,                                       !- Floor Area {m2}
  ,                                       !- Zone Inside Convection Algorithm
  ,                                       !- Zone Outside Convection Algorithm
  ,                                       !- Zone Conditioning Equipment List Name
  {e83250b1-2d87-4515-91f8-fcd9866f4a5b}, !- Zone Air Inlet Port List
  {e7e1fbd5-3348-45d2-aaa0-19160081e94d}, !- Zone Air Exhaust Port List
  {4c833cc6-c7d0-407f-88a8-c8f317c6ff90}, !- Zone Air Node Name
  {ec0c40de-65f0-46fc-a0d0-eb60dcd54da7}, !- Zone Return Air Port List
  ,                                       !- Primary Daylighting Control Name
  ,                                       !- Fraction of Zone Controlled by Primary Daylighting Control
  ,                                       !- Secondary Daylighting Control Name
  ,                                       !- Fraction of Zone Controlled by Secondary Daylighting Control
  ,                                       !- Illuminance Map Name
  ,                                       !- Group Rendering Name
  {b9c5efda-0a31-4b99-8302-5a657cb51949}, !- Thermostat Name
  No;                                     !- Use Ideal Air Loads

OS:Node,
  {284887e7-b5fb-4695-88ef-8b9fc737b101}, !- Handle
  Node 1,                                 !- Name
  {4c833cc6-c7d0-407f-88a8-c8f317c6ff90}, !- Inlet Port
  ;                                       !- Outlet Port

OS:Connection,
  {4c833cc6-c7d0-407f-88a8-c8f317c6ff90}, !- Handle
  {fe7e0f6f-aef9-47eb-ba66-a723a259d2ad}, !- Source Object
  11,                                     !- Outlet Port
  {284887e7-b5fb-4695-88ef-8b9fc737b101}, !- Target Object
  2;                                      !- Inlet Port

OS:PortList,
  {e83250b1-2d87-4515-91f8-fcd9866f4a5b}, !- Handle
  {fe7e0f6f-aef9-47eb-ba66-a723a259d2ad}, !- HVAC Component
  {89687d7d-99c4-4de3-a823-a88e43f24765}; !- Port 1

OS:PortList,
  {e7e1fbd5-3348-45d2-aaa0-19160081e94d}, !- Handle
  {fe7e0f6f-aef9-47eb-ba66-a723a259d2ad}; !- HVAC Component

OS:PortList,
  {ec0c40de-65f0-46fc-a0d0-eb60dcd54da7}, !- Handle
  {fe7e0f6f-aef9-47eb-ba66-a723a259d2ad}, !- HVAC Component
  {2130ec05-3bda-464f-a4b3-3bb121123335}; !- Port 1

OS:Sizing:Zone,
  {e74ee442-af79-476c-a6e5-52fbd22deb39}, !- Handle
  {fe7e0f6f-aef9-47eb-ba66-a723a259d2ad}, !- Zone or ZoneList Name
  SupplyAirTemperature,                   !- Zone Cooling Design Supply Air Temperature Input Method
  14,                                     !- Zone Cooling Design Supply Air Temperature {C}
  11.11,                                  !- Zone Cooling Design Supply Air Temperature Difference {deltaC}
  SupplyAirTemperature,                   !- Zone Heating Design Supply Air Temperature Input Method
  40,                                     !- Zone Heating Design Supply Air Temperature {C}
  11.11,                                  !- Zone Heating Design Supply Air Temperature Difference {deltaC}
  0.0085,                                 !- Zone Cooling Design Supply Air Humidity Ratio {kg-H2O/kg-air}
  0.008,                                  !- Zone Heating Design Supply Air Humidity Ratio {kg-H2O/kg-air}
  ,                                       !- Zone Heating Sizing Factor
  ,                                       !- Zone Cooling Sizing Factor
  DesignDay,                              !- Cooling Design Air Flow Method
  ,                                       !- Cooling Design Air Flow Rate {m3/s}
  ,                                       !- Cooling Minimum Air Flow per Zone Floor Area {m3/s-m2}
  ,                                       !- Cooling Minimum Air Flow {m3/s}
  ,                                       !- Cooling Minimum Air Flow Fraction
  DesignDay,                              !- Heating Design Air Flow Method
  ,                                       !- Heating Design Air Flow Rate {m3/s}
  ,                                       !- Heating Maximum Air Flow per Zone Floor Area {m3/s-m2}
  ,                                       !- Heating Maximum Air Flow {m3/s}
  ,                                       !- Heating Maximum Air Flow Fraction
  No,                                     !- Account for Dedicated Outdoor Air System
  NeutralSupplyAir,                       !- Dedicated Outdoor Air System Control Strategy
  autosize,                               !- Dedicated Outdoor Air Low Setpoint Temperature for Design {C}
  autosize,                               !- Dedicated Outdoor Air High Setpoint Temperature for Design {C}
  Sensible Load Only No Latent Load,      !- Zone Load Sizing Method
  HumidityRatioDifference,                !- Zone Latent Cooling Design Supply Air Humidity Ratio Input Method
  ,                                       !- Zone Dehumidification Design Supply Air Humidity Ratio {kgWater/kgDryAir}
  0.005,                                  !- Zone Cooling Design Supply Air Humidity Ratio Difference {kgWater/kgDryAir}
  HumidityRatioDifference,                !- Zone Latent Heating Design Supply Air Humidity Ratio Input Method
  ,                                       !- Zone Humidification Design Supply Air Humidity Ratio {kgWater/kgDryAir}
  0.005,                                  !- Zone Humidification Design Supply Air Humidity Ratio Difference {kgWater/kgDryAir}
  ,                                       !- Zone Humidistat Dehumidification Set Point Schedule Name
  ,                                       !- Zone Humidistat Humidification Set Point Schedule Name
  ,                                       !- Design Zone Air Distribution Effectiveness in Cooling Mode
  ,                                       !- Design Zone Air Distribution Effectiveness in Heating Mode
  ,                                       !- Design Zone Secondary Recirculation Fraction {dimensionless}
  ,                                       !- Design Minimum Zone Ventilation Efficiency {dimensionless}
  Coincident;                             !- Sizing Option

OS:ZoneHVAC:EquipmentList,
  {510419ba-d071-4ce0-aef1-215509999390}, !- Handle
  Zone HVAC Equipment List 1,             !- Name
  {fe7e0f6f-aef9-47eb-ba66-a723a259d2ad}, !- Thermal Zone
  ,                                       !- Load Distribution Scheme
  {dbe5e521-7199-4dd6-9bf8-649734f59bc6}, !- Zone Equipment 1
  1,                                      !- Zone Equipment Cooling Sequence 1
  1,                                      !- Zone Equipment Heating or No-Load Sequence 1
  {3de72190-89f3-477b-8f05-13a451b4970e}, !- Zone Equipment Sequential Cooling Fraction Schedule Name 1
  {599e720f-be9a-4a56-883a-2f21525e1f7a}, !- Zone Equipment Sequential Heating Fraction Schedule Name 1
  {df3e29ed-bc65-43ed-ba22-709b3d7a63e9}, !- Zone Equipment 2
  2,                                      !- Zone Equipment Cooling Sequence 2
  2,                                      !- Zone Equipment Heating or No-Load Sequence 2
  {e6da2fea-bafc-45fa-acd3-05a83ecc8f2c}, !- Zone Equipment Sequential Cooling Fraction Schedule Name 2
  {49270e15-d847-490e-aa7b-5739dd8bad10}; !- Zone Equipment Sequential Heating Fraction Schedule Name 2

OS:AdditionalProperties,
  {9b6549ae-d9db-4591-8c88-1b95f441a51f}, !- Handle
  {fe7e0f6f-aef9-47eb-ba66-a723a259d2ad}, !- Object Name
  ObjectType,                             !- Feature Name 1
  String,                                 !- Feature Data Type 1
  conditioned space;                      !- Feature Value 1

OS:Space,
  {3a936f8b-1663-4f92-aefc-260146e1d195}, !- Handle
  conditioned space 1,                    !- Name
  ,                                       !- Space Type Name
  ,                                       !- Default Construction Set Name
  ,                                       !- Default Schedule Set Name
  ,                                       !- Direction of Relative North {deg}
  ,                                       !- X Origin {m}
  ,                                       !- Y Origin {m}
  ,                                       !- Z Origin {m}
  ,                                       !- Building Story Name
  {fe7e0f6f-aef9-47eb-ba66-a723a259d2ad}, !- Thermal Zone Name
  ,                                       !- Part of Total Floor Area
  ,                                       !- Design Specification Outdoor Air Object Name
  ,                                       !- Building Unit Name
  692.06373070848;                        !- Volume {m3}

OS:Schedule:Ruleset,
  {3f85f0de-1af2-4353-a55a-d64b7e70d37f}, !- Handle
  heating setpoint,                       !- Name
  {ad4a18f3-dc98-4f3d-817a-0073500bec5a}, !- Schedule Type Limits Name
  {5ef83536-1495-4c0a-8373-bd90726c65cc}; !- Default Day Schedule Name

OS:Schedule:Day,
  {5ef83536-1495-4c0a-8373-bd90726c65cc}, !- Handle
  heating setpoint default day,           !- Name
  {ad4a18f3-dc98-4f3d-817a-0073500bec5a}, !- Schedule Type Limits Name
  ,                                       !- Interpolate to Timestep
  24,                                     !- Hour 1
  0,                                      !- Minute 1
  0;                                      !- Value Until Time 1

OS:Schedule:Rule,
  {260213ec-bbc5-4a70-bf26-8d2e54afc44f}, !- Handle
  heating setpoint allday rule,           !- Name
  {3f85f0de-1af2-4353-a55a-d64b7e70d37f}, !- Schedule Ruleset Name
  0,                                      !- Rule Order
  {09c41378-7de8-4fc3-a775-53644adacafb}, !- Day Schedule Name
  Yes,                                    !- Apply Sunday
  Yes,                                    !- Apply Monday
  Yes,                                    !- Apply Tuesday
  Yes,                                    !- Apply Wednesday
  Yes,                                    !- Apply Thursday
  Yes,                                    !- Apply Friday
  Yes,                                    !- Apply Saturday
  DateRange,                              !- Date Specification Type
  1,                                      !- Start Month
  1,                                      !- Start Day
  12,                                     !- End Month
  31;                                     !- End Day

OS:Schedule:Day,
  {09c41378-7de8-4fc3-a775-53644adacafb}, !- Handle
  heating setpoint day,                   !- Name
  {ad4a18f3-dc98-4f3d-817a-0073500bec5a}, !- Schedule Type Limits Name
  ,                                       !- Interpolate to Timestep
  24,                                     !- Hour 1
  0,                                      !- Minute 1
  20;                                     !- Value Until Time 1

OS:Schedule:Ruleset,
  {b090d0ad-3a6d-4469-bf74-590d7720bebb}, !- Handle
  cooling setpoint,                       !- Name
  {ad4a18f3-dc98-4f3d-817a-0073500bec5a}, !- Schedule Type Limits Name
  {0490a3ce-141e-425b-9f88-df8fcd036daf}; !- Default Day Schedule Name

OS:Schedule:Day,
  {0490a3ce-141e-425b-9f88-df8fcd036daf}, !- Handle
  cooling setpoint default day,           !- Name
  {ad4a18f3-dc98-4f3d-817a-0073500bec5a}, !- Schedule Type Limits Name
  ,                                       !- Interpolate to Timestep
  24,                                     !- Hour 1
  0,                                      !- Minute 1
  0;                                      !- Value Until Time 1

OS:Schedule:Rule,
  {8987f0f9-c844-484f-9b48-504bd8ecea34}, !- Handle
  cooling setpoint allday rule,           !- Name
  {b090d0ad-3a6d-4469-bf74-590d7720bebb}, !- Schedule Ruleset Name
  0,                                      !- Rule Order
  {469c39f1-7a5a-470f-a0c1-67a40a5158d1}, !- Day Schedule Name
  Yes,                                    !- Apply Sunday
  Yes,                                    !- Apply Monday
  Yes,                                    !- Apply Tuesday
  Yes,                                    !- Apply Wednesday
  Yes,                                    !- Apply Thursday
  Yes,                                    !- Apply Friday
  Yes,                                    !- Apply Saturday
  DateRange,                              !- Date Specification Type
  1,                                      !- Start Month
  1,                                      !- Start Day
  12,                                     !- End Month
  31;                                     !- End Day

OS:Schedule:Day,
  {469c39f1-7a5a-470f-a0c1-67a40a5158d1}, !- Handle
  cooling setpoint day,                   !- Name
  {ad4a18f3-dc98-4f3d-817a-0073500bec5a}, !- Schedule Type Limits Name
  ,                                       !- Interpolate to Timestep
  24,                                     !- Hour 1
  0,                                      !- Minute 1
  25.5555555555556;                       !- Value Until Time 1

OS:ThermostatSetpoint:DualSetpoint,
  {b9c5efda-0a31-4b99-8302-5a657cb51949}, !- Handle
  conditioned space temperature setpoint, !- Name
  {3f85f0de-1af2-4353-a55a-d64b7e70d37f}, !- Heating Setpoint Temperature Schedule Name
  {b090d0ad-3a6d-4469-bf74-590d7720bebb}, !- Cooling Setpoint Temperature Schedule Name
  0;                                      !- Temperature Difference Between Cutout And Setpoint {deltaC}

OS:ScheduleTypeLimits,
  {ad4a18f3-dc98-4f3d-817a-0073500bec5a}, !- Handle
  Temperature,                            !- Name
  ,                                       !- Lower Limit Value
  ,                                       !- Upper Limit Value
  Continuous,                             !- Numeric Type
  Temperature;                            !- Unit Type

OS:Surface,
  {1377d6bd-894c-49e4-bdd1-936c8c4d3ec0}, !- Handle
  Roof1,                                  !- Name
  RoofCeiling,                            !- Surface Type
  {0e6b95fc-1b77-41f6-9584-beb47a29093b}, !- Construction Name
  {8e096777-4a1e-4866-b2fe-be430a868f4d}, !- Space Name
  Outdoors,                               !- Outside Boundary Condition
  ,                                       !- Outside Boundary Condition Object
  SunExposed,                             !- Sun Exposure
  WindExposed,                            !- Wind Exposure
  ,                                       !- View Factor to Ground
  ,                                       !- Number of Vertices
  -26.9347048849634, 58.0557891618865, 2.4384, !- X,Y,Z Vertex 1 {m}
  -26.9347048849634, 46.7895631136661, 8.0715130241102, !- X,Y,Z Vertex 2 {m}
  -14.3386812381136, 46.7895631136661, 8.0715130241102, !- X,Y,Z Vertex 3 {m}
  -14.3386812381136, 58.0557891618865, 2.4384; !- X,Y,Z Vertex 4 {m}

OS:AdditionalProperties,
  {590c5aac-15bc-4a8c-b878-5d2bd5ba2930}, !- Handle
  {1377d6bd-894c-49e4-bdd1-936c8c4d3ec0}, !- Object Name
  Length,                                 !- Feature Name 1
  Double,                                 !- Feature Data Type 1
  41.325536899113608,                     !- Feature Value 1
  Width,                                  !- Feature Name 2
  Double,                                 !- Feature Data Type 2
  41.325536899113601,                     !- Feature Value 2
  Azimuth,                                !- Feature Name 3
  Integer,                                !- Feature Data Type 3
  0,                                      !- Feature Value 3
  Tilt,                                   !- Feature Name 4
  Double,                                 !- Feature Data Type 4
  0.5,                                    !- Feature Value 4
  SurfaceType,                            !- Feature Name 5
  String,                                 !- Feature Data Type 5
  Roof;                                   !- Feature Value 5

OS:ThermalZone,
  {21b07da5-3534-4ab3-a8ee-51c3097035fc}, !- Handle
  attic - vented,                         !- Name
  1,                                      !- Multiplier
  ,                                       !- Ceiling Height {m}
  356.390921899745,                       !- Volume {m3}
  ,                                       !- Floor Area {m2}
  ,                                       !- Zone Inside Convection Algorithm
  ,                                       !- Zone Outside Convection Algorithm
  ,                                       !- Zone Conditioning Equipment List Name
  {1860431e-3d0e-4107-915a-e6bdd0644186}, !- Zone Air Inlet Port List
  {abe4ecbe-a0a5-4607-92ad-67ce33f751f7}, !- Zone Air Exhaust Port List
  {47c755b3-fb26-4854-a2d7-4cb4332532dd}, !- Zone Air Node Name
  {06261a88-7cc3-4c54-9a75-dd225c0e968a}, !- Zone Return Air Port List
  ,                                       !- Primary Daylighting Control Name
  ,                                       !- Fraction of Zone Controlled by Primary Daylighting Control
  ,                                       !- Secondary Daylighting Control Name
  ,                                       !- Fraction of Zone Controlled by Secondary Daylighting Control
  ,                                       !- Illuminance Map Name
  ,                                       !- Group Rendering Name
  ,                                       !- Thermostat Name
  No;                                     !- Use Ideal Air Loads

OS:Node,
  {efa1903a-f774-4a17-860a-ab6db3f14e5b}, !- Handle
  Node 2,                                 !- Name
  {47c755b3-fb26-4854-a2d7-4cb4332532dd}, !- Inlet Port
  ;                                       !- Outlet Port

OS:Connection,
  {47c755b3-fb26-4854-a2d7-4cb4332532dd}, !- Handle
  {21b07da5-3534-4ab3-a8ee-51c3097035fc}, !- Source Object
  11,                                     !- Outlet Port
  {efa1903a-f774-4a17-860a-ab6db3f14e5b}, !- Target Object
  2;                                      !- Inlet Port

OS:PortList,
  {1860431e-3d0e-4107-915a-e6bdd0644186}, !- Handle
  {21b07da5-3534-4ab3-a8ee-51c3097035fc}; !- HVAC Component

OS:PortList,
  {abe4ecbe-a0a5-4607-92ad-67ce33f751f7}, !- Handle
  {21b07da5-3534-4ab3-a8ee-51c3097035fc}; !- HVAC Component

OS:PortList,
  {06261a88-7cc3-4c54-9a75-dd225c0e968a}, !- Handle
  {21b07da5-3534-4ab3-a8ee-51c3097035fc}; !- HVAC Component

OS:Sizing:Zone,
  {aa1734fc-7122-474b-85fa-84f0f36fa29e}, !- Handle
  {21b07da5-3534-4ab3-a8ee-51c3097035fc}, !- Zone or ZoneList Name
  SupplyAirTemperature,                   !- Zone Cooling Design Supply Air Temperature Input Method
  14,                                     !- Zone Cooling Design Supply Air Temperature {C}
  11.11,                                  !- Zone Cooling Design Supply Air Temperature Difference {deltaC}
  SupplyAirTemperature,                   !- Zone Heating Design Supply Air Temperature Input Method
  40,                                     !- Zone Heating Design Supply Air Temperature {C}
  11.11,                                  !- Zone Heating Design Supply Air Temperature Difference {deltaC}
  0.0085,                                 !- Zone Cooling Design Supply Air Humidity Ratio {kg-H2O/kg-air}
  0.008,                                  !- Zone Heating Design Supply Air Humidity Ratio {kg-H2O/kg-air}
  ,                                       !- Zone Heating Sizing Factor
  ,                                       !- Zone Cooling Sizing Factor
  DesignDay,                              !- Cooling Design Air Flow Method
  ,                                       !- Cooling Design Air Flow Rate {m3/s}
  ,                                       !- Cooling Minimum Air Flow per Zone Floor Area {m3/s-m2}
  ,                                       !- Cooling Minimum Air Flow {m3/s}
  ,                                       !- Cooling Minimum Air Flow Fraction
  DesignDay,                              !- Heating Design Air Flow Method
  ,                                       !- Heating Design Air Flow Rate {m3/s}
  ,                                       !- Heating Maximum Air Flow per Zone Floor Area {m3/s-m2}
  ,                                       !- Heating Maximum Air Flow {m3/s}
  ,                                       !- Heating Maximum Air Flow Fraction
  No,                                     !- Account for Dedicated Outdoor Air System
  NeutralSupplyAir,                       !- Dedicated Outdoor Air System Control Strategy
  autosize,                               !- Dedicated Outdoor Air Low Setpoint Temperature for Design {C}
  autosize,                               !- Dedicated Outdoor Air High Setpoint Temperature for Design {C}
  Sensible Load Only No Latent Load,      !- Zone Load Sizing Method
  HumidityRatioDifference,                !- Zone Latent Cooling Design Supply Air Humidity Ratio Input Method
  ,                                       !- Zone Dehumidification Design Supply Air Humidity Ratio {kgWater/kgDryAir}
  0.005,                                  !- Zone Cooling Design Supply Air Humidity Ratio Difference {kgWater/kgDryAir}
  HumidityRatioDifference,                !- Zone Latent Heating Design Supply Air Humidity Ratio Input Method
  ,                                       !- Zone Humidification Design Supply Air Humidity Ratio {kgWater/kgDryAir}
  0.005,                                  !- Zone Humidification Design Supply Air Humidity Ratio Difference {kgWater/kgDryAir}
  ,                                       !- Zone Humidistat Dehumidification Set Point Schedule Name
  ,                                       !- Zone Humidistat Humidification Set Point Schedule Name
  ,                                       !- Design Zone Air Distribution Effectiveness in Cooling Mode
  ,                                       !- Design Zone Air Distribution Effectiveness in Heating Mode
  ,                                       !- Design Zone Secondary Recirculation Fraction {dimensionless}
  ,                                       !- Design Minimum Zone Ventilation Efficiency {dimensionless}
  Coincident;                             !- Sizing Option

OS:ZoneHVAC:EquipmentList,
  {c69a4105-47de-46ee-b3ef-a01868bab0b9}, !- Handle
  Zone HVAC Equipment List 2,             !- Name
  {21b07da5-3534-4ab3-a8ee-51c3097035fc}; !- Thermal Zone

OS:AdditionalProperties,
  {9946ae70-cdad-470d-b65e-6eb9a8c07e5c}, !- Handle
  {21b07da5-3534-4ab3-a8ee-51c3097035fc}, !- Object Name
  ObjectType,                             !- Feature Name 1
  String,                                 !- Feature Data Type 1
  attic - vented;                         !- Feature Value 1

OS:Space,
  {8e096777-4a1e-4866-b2fe-be430a868f4d}, !- Handle
  attic - vented 1,                       !- Name
  ,                                       !- Space Type Name
  ,                                       !- Default Construction Set Name
  ,                                       !- Default Schedule Set Name
  ,                                       !- Direction of Relative North {deg}
  ,                                       !- X Origin {m}
  ,                                       !- Y Origin {m}
  ,                                       !- Z Origin {m}
  ,                                       !- Building Story Name
  {21b07da5-3534-4ab3-a8ee-51c3097035fc}, !- Thermal Zone Name
  ,                                       !- Part of Total Floor Area
  ,                                       !- Design Specification Outdoor Air Object Name
  ,                                       !- Building Unit Name
  356.390921899745;                       !- Volume {m3}

OS:Material,
  {2e583299-1372-4a54-b7fb-4b8c48333438}, !- Handle
  asphalt or fiberglass shingles,         !- Name