
OS:Version,
  {6d3c8f83-7f95-4e8a-8eaa-0857359f8db8}, !- Handle
  3.9.0;                                  !- Version Identifier

OS:SimulationControl,
  {74ca66a9-dbf1-4d7f-b362-1db20e12445b}, !- Handle
  ,                                       !- Do Zone Sizing Calculation
  ,                                       !- Do System Sizing Calculation
  ,                                       !- Do Plant Sizing Calculation
  No;                                     !- Run Simulation for Sizing Periods

OS:Timestep,
  {cb892047-74e0-4cd7-8fb7-6b94c3543d18}, !- Handle
  1;                                      !- Number of Timesteps per Hour

OS:ShadowCalculation,
  {76904752-e8ec-4de3-883f-fbfe20f6222d}, !- Handle
  PolygonClipping,                        !- Shading Calculation Method
  ,                                       !- Shading Calculation Update Frequency Method
  20,                                     !- Shading Calculation Update Frequency
  200,                                    !- Maximum Figures in Shadow Overlap Calculations
  ,                                       !- Polygon Clipping Algorithm
  512,                                    !- Pixel Counting Resolution
  ,                                       !- Sky Diffuse Modeling Algorithm
  No,                                     !- Output External Shading Calculation Results
  No,                                     !- Disable Self-Shading Within Shading Zone Groups
  No;                                     !- Disable Self-Shading From Shading Zone Groups to Other Zones

OS:SurfaceConvectionAlgorithm:Outside,
  {73e7ee1a-f3cc-447d-a56d-d75d9aefc6fa}, !- Handle
  DOE-2;                                  !- Algorithm

OS:SurfaceConvectionAlgorithm:Inside,
  {5eaa489b-6dcf-4f86-b8c1-94dcba4db099}, !- Handle
  TARP;                                   !- Algorithm

OS:ZoneCapacitanceMultiplier:ResearchSpecial,
  {9632c833-88c0-4f1c-a781-07b33d8958d1}, !- Handle
  7,                                      !- Temperature Capacity Multiplier
  15,                                     !- Humidity Capacity Multiplier
  ;                                       !- Carbon Dioxide Capacity Multiplier

OS:ConvergenceLimits,
  {c24649d7-d931-40a8-90a1-050b0b1ad9da}, !- Handle
  0;                                      !- Minimum System Timestep {minutes}

OS:RunPeriod,
  {b4dde707-6711-4caf-947b-2b8fd077e332}, !- Handle
  Run Period 1,                           !- Name
  1,                                      !- Begin Month
  1,                                      !- Begin Day of Month
  12,                                     !- End Month
  31,                                     !- End Day of Month
  ,                                       !- Use Weather File Holidays and Special Days
  ,                                       !- Use Weather File Daylight Saving Period
  ,                                       !- Apply Weekend Holiday Rule
  ,                                       !- Use Weather File Rain Indicators
  ,                                       !- Use Weather File Snow Indicators
  ;                                       !- Number of Times Runperiod to be Repeated

OS:PerformancePrecisionTradeoffs,
  {fdc89479-9370-4815-9914-4aaaf2a8c92e}, !- Handle
  ,                                       !- Use Coil Direct Solutions
  CarrollMRT;                             !- Zone Radiant Exchange Algorithm

OS:WeatherFile,
  {94390921-010e-46e7-aecd-dc329b5f226a}, !- Handle
  Buffalo Niagara Intl Ap,                !- City
  NY,                                     !- State Province Region
  USA,                                    !- Country
  TMY3,                                   !- Data Source
  725280,                                 !- WMO Number
  42.93,                                  !- Latitude {deg}
  -78.73,                                 !- Longitude {deg}
  -5,                                     !- Time Zone {hr}
  215,                                    !- Elevation {m}
  /Users/nmoore/github/urbanopt-example-geojson-project/example_project/weather/USA_NY_Buffalo-Greater.Buffalo.Intl.AP.725280_TMY3.epw, !- Url
  6B50E0FF,                               !- Checksum
  ,                                       !- Start Date Actual Year
  Sunday;                                 !- Start Day of Week

OS:YearDescription,
  {c4251a63-239d-49f9-bf14-e7f8aed8a284}, !- Handle
  2007,                                   !- Calendar Year
  ,                                       !- Day of Week for Start Day
  ;                                       !- Is Leap Year

OS:Site,
  {27206458-1a4d-4484-b60b-ed8bf67a1930}, !- Handle
  Buffalo Niagara Intl Ap_NY,             !- Name
  42.93,                                  !- Latitude {deg}
  -78.73,                                 !- Longitude {deg}
  -5,                                     !- Time Zone {hr}
  215,                                    !- Elevation {m}
  Suburbs,                                !- Terrain
  Yes;                                    !- Keep Site Location Information

OS:RunPeriodControl:DaylightSavingTime,
  {72989824-6aec-475a-a2f2-829725355ca8}, !- Handle
  Mar 12,                                 !- Start Date
  Nov 5;                                  !- End Date

OS:Site:GroundTemperature:Shallow,
  {534177fe-3e66-4e8d-9501-05ae4bec6293}, !- Handle
  4.30207395723828,                       !- January Surface Ground Temperature {C}
  2.29327249652502,                       !- February Surface Ground Temperature {C}
  2.13240047156047,                       !- March Surface Ground Temperature {C}
  3.08567940719286,                       !- April Surface Ground Temperature {C}
  6.91256312497526,                       !- May Surface Ground Temperature {C}
  10.7216195949507,                       !- June Surface Ground Temperature {C}
  14.0238679822574,                       !- July Surface Ground Temperature {C}
  16.1157611184724,                       !- August Surface Ground Temperature {C}
  16.2934789303462,                       !- September Surface Ground Temperature {C}
  14.5920754632847,                       !- October Surface Ground Temperature {C}
  11.374036348653,                        !- November Surface Ground Temperature {C}
  7.68182621661674;                       !- December Surface Ground Temperature {C}

OS:ThermalZone,
  {329317c1-c9c1-4708-8a2e-5f5dd7b1c7f4}, !- Handle
  conditioned space,                      !- Name
  1,                                      !- Multiplier
  ,                                       !- Ceiling Height {m}
  692.06373070848,                        !- Volume {m3}
  ,                                       !- Floor Area {m2}
  ,                                       !- Zone Inside Convection Algorithm
  ,                                       !- Zone Outside Convection Algorithm
  ,                                       !- Zone Conditioning Equipment List Name
  {f48ddacc-ae53-4f50-8738-a771f167ec4e}, !- Zone Air Inlet Port List
  {92d3cbf2-0329-4082-ba99-ccbe2fb957d9}, !- Zone Air Exhaust Port List
  {3fcaf6e6-cc34-4f89-a51f-b7ba58e00489}, !- Zone Air Node Name
  {4d76b18d-90ee-42bb-8cbe-b59a4d9cceeb}, !- Zone Return Air Port List
  ,                                       !- Primary Daylighting Control Name
  ,                                       !- Fraction of Zone Controlled by Primary Daylighting Control
  ,                                       !- Secondary Daylighting Control Name
  ,                                       !- Fraction of Zone Controlled by Secondary Daylighting Control
  ,                                       !- Illuminance Map Name
  ,                                       !- Group Rendering Name
  {b940ade5-e5cd-49c2-849a-317ebd1cf4d9}, !- Thermostat Name
  No;                                     !- Use Ideal Air Loads

OS:Node,
  {48b0e825-c85d-449e-a24f-5668ef7ee196}, !- Handle
  Node 1,                                 !- Name
  {3fcaf6e6-cc34-4f89-a51f-b7ba58e00489}, !- Inlet Port
  ;                                       !- Outlet Port

OS:Connection,
  {3fcaf6e6-cc34-4f89-a51f-b7ba58e00489}, !- Handle
  {329317c1-c9c1-4708-8a2e-5f5dd7b1c7f4}, !- Source Object
  11,                                     !- Outlet Port
  {48b0e825-c85d-449e-a24f-5668ef7ee196}, !- Target Object
  2;                                      !- Inlet Port

OS:PortList,
  {f48ddacc-ae53-4f50-8738-a771f167ec4e}, !- Handle
  {329317c1-c9c1-4708-8a2e-5f5dd7b1c7f4}, !- HVAC Component
  {fd0a9617-5de2-4f8b-bd61-85a2b6f6c678}; !- Port 1

OS:PortList,
  {92d3cbf2-0329-4082-ba99-ccbe2fb957d9}, !- Handle
  {329317c1-c9c1-4708-8a2e-5f5dd7b1c7f4}; !- HVAC Component

OS:PortList,
  {4d76b18d-90ee-42bb-8cbe-b59a4d9cceeb}, !- Handle
  {329317c1-c9c1-4708-8a2e-5f5dd7b1c7f4}, !- HVAC Component
  {19bf9bde-62ef-4f33-87ae-82a161048991}; !- Port 1

OS:Sizing:Zone,
  {56a6f634-fc95-43c4-b470-45c42e8262ef}, !- Handle
  {329317c1-c9c1-4708-8a2e-5f5dd7b1c7f4}, !- Zone or ZoneList Name
  SupplyAirTemperature,                   !- Zone Cooling Design Supply Air Temperature Input Method
  14,                                     !- Zone Cooling Design Supply Air Temperature {C}
  11.11,                                  !- Zone Cooling Design Supply Air Temperature Difference {deltaC}
  SupplyAirTemperature,                   !- Zone Heating Design Supply Air Temperature Input Method
  40,                                     !- Zone Heating Design Supply Air Temperature {C}
  11.11,                                  !- Zone Heating Design Supply Air Temperature Difference {deltaC}
  0.0085,                                 !- Zone Cooling Design Supply Air Humidity Ratio {kg-H2O/kg-air}
  0.008,                                  !- Zone Heating Design Supply Air Humidity Ratio {kg-H2O/kg-air}
  ,                                       !- Zone Heating Sizing Factor
  ,                                       !- Zone Cooling Sizing Factor
  DesignDay,                              !- Cooling Design Air Flow Method
  ,                                       !- Cooling Design Air Flow Rate {m3/s}
  ,                                       !- Cooling Minimum Air Flow per Zone Floor Area {m3/s-m2}
  ,                                       !- Cooling Minimum Air Flow {m3/s}
  ,                                       !- Cooling Minimum Air Flow Fraction
  DesignDay,                              !- Heating Design Air Flow Method
  ,                                       !- Heating Design Air Flow Rate {m3/s}
  ,                                       !- Heating Maximum Air Flow per Zone Floor Area {m3/s-m2}
  ,                                       !- Heating Maximum Air Flow {m3/s}
  ,                                       !- Heating Maximum Air Flow Fraction
  No,                                     !- Account for Dedicated Outdoor Air System
  NeutralSupplyAir,                       !- Dedicated Outdoor Air System Control Strategy
  autosize,                               !- Dedicated Outdoor Air Low Setpoint Temperature for Design {C}
  autosize,                               !- Dedicated Outdoor Air High Setpoint Temperature for Design {C}
  Sensible Load Only No Latent Load,      !- Zone Load Sizing Method
  HumidityRatioDifference,                !- Zone Latent Cooling Design Supply Air Humidity Ratio Input Method
  ,                                       !- Zone Dehumidification Design Supply Air Humidity Ratio {kgWater/kgDryAir}
  0.005,                                  !- Zone Cooling Design Supply Air Humidity Ratio Difference {kgWater/kgDryAir}
  HumidityRatioDifference,                !- Zone Latent Heating Design Supply Air Humidity Ratio Input Method
  ,                                       !- Zone Humidification Design Supply Air Humidity Ratio {kgWater/kgDryAir}
  0.005,                                  !- Zone Humidification Design Supply Air Humidity Ratio Difference {kgWater/kgDryAir}
  ,                                       !- Zone Humidistat Dehumidification Set Point Schedule Name
  ,                                       !- Zone Humidistat Humidification Set Point Schedule Name
  ,                                       !- Design Zone Air Distribution Effectiveness in Cooling Mode
  ,                                       !- Design Zone Air Distribution Effectiveness in Heating Mode
  ,                                       !- Design Zone Secondary Recirculation Fraction {dimensionless}
  ,                                       !- Design Minimum Zone Ventilation Efficiency {dimensionless}
  Coincident;                             !- Sizing Option

OS:ZoneHVAC:EquipmentList,
  {44124b38-4839-4948-9720-7fe44524ff77}, !- Handle
  Zone HVAC Equipment List 1,             !- Name
  {329317c1-c9c1-4708-8a2e-5f5dd7b1c7f4}, !- Thermal Zone
  ,                                       !- Load Distribution Scheme
  {40fde52a-4358-4828-8ef7-a4cb2b8d118f}, !- Zone Equipment 1
  1,                                      !- Zone Equipment Cooling Sequence 1
  1,                                      !- Zone Equipment Heating or No-Load Sequence 1
  {bba4f1a9-ef3b-4b21-a6d7-f29da7fe0d70}, !- Zone Equipment Sequential Cooling Fraction Schedule Name 1
  {7c35b448-ca3d-45ff-88f8-80846b2a3503}, !- Zone Equipment Sequential Heating Fraction Schedule Name 1
  {e23a7706-82e1-4204-b13c-21def97e936e}, !- Zone Equipment 2
  2,                                      !- Zone Equipment Cooling Sequence 2
  2,                                      !- Zone Equipment Heating or No-Load Sequence 2
  {d079f367-d3f3-4981-a774-fed9dd1e4631}, !- Zone Equipment Sequential Cooling Fraction Schedule Name 2
  {e94c6913-5974-47a2-9ad7-0ec8961e494c}; !- Zone Equipment Sequential Heating Fraction Schedule Name 2

OS:AdditionalProperties,
  {7e2ddb2f-9810-43b4-aa31-85a5d904e660}, !- Handle
  {329317c1-c9c1-4708-8a2e-5f5dd7b1c7f4}, !- Object Name
  ObjectType,                             !- Feature Name 1
  String,                                 !- Feature Data Type 1
  conditioned space;                      !- Feature Value 1

OS:Space,
  {1d2dfa8b-ade6-4404-8daf-459e8963accb}, !- Handle
  conditioned space 1,                    !- Name
  ,                                       !- Space Type Name
  ,                                       !- Default Construction Set Name
  ,                                       !- Default Schedule Set Name
  ,                                       !- Direction of Relative North {deg}
  ,                                       !- X Origin {m}
  ,                                       !- Y Origin {m}
  ,                                       !- Z Origin {m}
  ,                                       !- Building Story Name
  {329317c1-c9c1-4708-8a2e-5f5dd7b1c7f4}, !- Thermal Zone Name
  ,                                       !- Part of Total Floor Area
  ,                                       !- Design Specification Outdoor Air Object Name
  ,                                       !- Building Unit Name
  692.06373070848;                        !- Volume {m3}

OS:Schedule:Ruleset,
  {110a20cd-9178-4bd7-ad94-abf53c51641c}, !- Handle
  heating setpoint,                       !- Name
  {be680853-f117-4421-b573-88fb572daa5a}, !- Schedule Type Limits Name
  {40864d0f-89bb-46ed-a1e2-7f5ba726a102}; !- Default Day Schedule Name

OS:Schedule:Day,
  {40864d0f-89bb-46ed-a1e2-7f5ba726a102}, !- Handle
  heating setpoint default day,           !- Name
  {be680853-f117-4421-b573-88fb572daa5a}, !- Schedule Type Limits Name
  ,                                       !- Interpolate to Timestep
  24,                                     !- Hour 1
  0,                                      !- Minute 1
  0;                                      !- Value Until Time 1

OS:Schedule:Rule,
  {340837b8-a511-4713-8d6c-0b20156674a0}, !- Handle
  heating setpoint allday rule,           !- Name
  {110a20cd-9178-4bd7-ad94-abf53c51641c}, !- Schedule Ruleset Name
  0,                                      !- Rule Order
  {25e8f58e-4db9-4f61-9fd5-6076fe628c7f}, !- Day Schedule Name
  Yes,                                    !- Apply Sunday
  Yes,                                    !- Apply Monday
  Yes,                                    !- Apply Tuesday
  Yes,                                    !- Apply Wednesday
  Yes,                                    !- Apply Thursday
  Yes,                                    !- Apply Friday
  Yes,                                    !- Apply Saturday
  DateRange,                              !- Date Specification Type
  1,                                      !- Start Month
  1,                                      !- Start Day
  12,                                     !- End Month
  31;                                     !- End Day

OS:Schedule:Day,
  {25e8f58e-4db9-4f61-9fd5-6076fe628c7f}, !- Handle
  heating setpoint day,                   !- Name
  {be680853-f117-4421-b573-88fb572daa5a}, !- Schedule Type Limits Name
  ,                                       !- Interpolate to Timestep
  24,                                     !- Hour 1
  0,                                      !- Minute 1
  20;                                     !- Value Until Time 1

OS:Schedule:Ruleset,
  {918ce811-377c-4369-8176-a6778ee1fd62}, !- Handle
  cooling setpoint,                       !- Name
  {be680853-f117-4421-b573-88fb572daa5a}, !- Schedule Type Limits Name
  {fbd4d256-2353-4bee-9481-95ea93509268}; !- Default Day Schedule Name

OS:Schedule:Day,
  {fbd4d256-2353-4bee-9481-95ea93509268}, !- Handle
  cooling setpoint default day,           !- Name
  {be680853-f117-4421-b573-88fb572daa5a}, !- Schedule Type Limits Name
  ,                                       !- Interpolate to Timestep
  24,                                     !- Hour 1
  0,                                      !- Minute 1
  0;                                      !- Value Until Time 1

OS:Schedule:Rule,
  {4bd772b0-fd83-4ed6-a0d7-bf3a8fa5a2a6}, !- Handle
  cooling setpoint allday rule,           !- Name
  {918ce811-377c-4369-8176-a6778ee1fd62}, !- Schedule Ruleset Name
  0,                                      !- Rule Order
  {bbc77b0b-507b-4999-a2e0-8bd702d80997}, !- Day Schedule Name
  Yes,                                    !- Apply Sunday
  Yes,                                    !- Apply Monday
  Yes,                                    !- Apply Tuesday
  Yes,                                    !- Apply Wednesday
  Yes,                                    !- Apply Thursday
  Yes,                                    !- Apply Friday
  Yes,                                    !- Apply Saturday
  DateRange,                              !- Date Specification Type
  1,                                      !- Start Month
  1,                                      !- Start Day
  12,                                     !- End Month
  31;                                     !- End Day

OS:Schedule:Day,
  {bbc77b0b-507b-4999-a2e0-8bd702d80997}, !- Handle
  cooling setpoint day,                   !- Name
  {be680853-f117-4421-b573-88fb572daa5a}, !- Schedule Type Limits Name
  ,                                       !- Interpolate to Timestep
  24,                                     !- Hour 1
  0,                                      !- Minute 1
  25.5555555555556;                       !- Value Until Time 1

OS:ThermostatSetpoint:DualSetpoint,
  {b940ade5-e5cd-49c2-849a-317ebd1cf4d9}, !- Handle
  conditioned space temperature setpoint, !- Name
  {110a20cd-9178-4bd7-ad94-abf53c51641c}, !- Heating Setpoint Temperature Schedule Name
  {918ce811-377c-4369-8176-a6778ee1fd62}, !- Cooling Setpoint Temperature Schedule Name
  0;                                      !- Temperature Difference Between Cutout And Setpoint {deltaC}

OS:ScheduleTypeLimits,
  {be680853-f117-4421-b573-88fb572daa5a}, !- Handle
  Temperature,                            !- Name
  ,                                       !- Lower Limit Value
  ,                                       !- Upper Limit Value
  Continuous,                             !- Numeric Type
  Temperature;                            !- Unit Type

OS:Surface,
  {b92aded3-d451-4f03-b065-498d62040dfa}, !- Handle
  Roof1,                                  !- Name
  RoofCeiling,                            !- Surface Type
  {e51a9a27-09bf-45a9-bc06-9a1227a84d16}, !- Construction Name
  {9d89ac24-0340-4f69-8ecc-234eda781918}, !- Space Name
  Outdoors,                               !- Outside Boundary Condition
  ,                                       !- Outside Boundary Condition Object
  SunExposed,                             !- Sun Exposure
  WindExposed,                            !- Wind Exposure
  ,                                       !- View Factor to Ground
  ,                                       !- Number of Vertices
  -26.9347048849634, 58.0557891618865, 2.4384, !- X,Y,Z Vertex 1 {m}
  -26.9347048849634, 46.7895631136661, 8.0715130241102, !- X,Y,Z Vertex 2 {m}
  -14.3386812381136, 46.7895631136661, 8.0715130241102, !- X,Y,Z Vertex 3 {m}
  -14.3386812381136, 58.0557891618865, 2.4384; !- X,Y,Z Vertex 4 {m}

OS:AdditionalProperties,
  {58c7084d-5c14-4f6d-9f01-93f8670a51b7}, !- Handle
  {b92aded3-d451-4f03-b065-498d62040dfa}, !- Object Name
  Length,                                 !- Feature Name 1
  Double,                                 !- Feature Data Type 1
  41.325536899113608,                     !- Feature Value 1
  Width,                                  !- Feature Name 2
  Double,                                 !- Feature Data Type 2
  41.325536899113601,                     !- Feature Value 2
  Azimuth,                                !- Feature Name 3
  Integer,                                !- Feature Data Type 3
  0,                                      !- Feature Value 3
  Tilt,                                   !- Feature Name 4
  Double,                                 !- Feature Data Type 4
  0.5,                                    !- Feature Value 4
  SurfaceType,                            !- Feature Name 5
  String,                                 !- Feature Data Type 5
  Roof;                                   !- Feature Value 5

OS:ThermalZone,
  {c12783d0-0037-48c1-b395-f1d6f5936862}, !- Handle
  attic - vented,                         !- Name
  1,                                      !- Multiplier
  ,                                       !- Ceiling Height {m}
  356.389957095237,                       !- Volume {m3}
  ,                                       !- Floor Area {m2}
  ,                                       !- Zone Inside Convection Algorithm
  ,                                       !- Zone Outside Convection Algorithm
  ,                                       !- Zone Conditioning Equipment List Name
  {6969ec74-2999-40cb-885f-9777a7aa2273}, !- Zone Air Inlet Port List
  {eef9fee0-d3b5-419b-bc68-04bc5289e608}, !- Zone Air Exhaust Port List
  {13fbb070-5ba1-4c82-a86a-cbb8548fdba5}, !- Zone Air Node Name
  {77c13e0c-d5a3-4109-a1af-186df449391a}, !- Zone Return Air Port List
  ,                                       !- Primary Daylighting Control Name
  ,                                       !- Fraction of Zone Controlled by Primary Daylighting Control
  ,                                       !- Secondary Daylighting Control Name
  ,                                       !- Fraction of Zone Controlled by Secondary Daylighting Control
  ,                                       !- Illuminance Map Name
  ,                                       !- Group Rendering Name
  ,                                       !- Thermostat Name
  No;                                     !- Use Ideal Air Loads

OS:Node,
  {366f4966-1354-4cb6-a89a-9c367be7757d}, !- Handle
  Node 2,                                 !- Name
  {13fbb070-5ba1-4c82-a86a-cbb8548fdba5}, !- Inlet Port
  ;                                       !- Outlet Port

OS:Connection,
  {13fbb070-5ba1-4c82-a86a-cbb8548fdba5}, !- Handle
  {c12783d0-0037-48c1-b395-f1d6f5936862}, !- Source Object
  11,                                     !- Outlet Port
  {366f4966-1354-4cb6-a89a-9c367be7757d}, !- Target Object
  2;                                      !- Inlet Port

OS:PortList,
  {6969ec74-2999-40cb-885f-9777a7aa2273}, !- Handle
  {c12783d0-0037-48c1-b395-f1d6f5936862}; !- HVAC Component

OS:PortList,
  {eef9fee0-d3b5-419b-bc68-04bc5289e608}, !- Handle
  {c12783d0-0037-48c1-b395-f1d6f5936862}; !- HVAC Component

OS:PortList,
  {77c13e0c-d5a3-4109-a1af-186df449391a}, !- Handle
  {c12783d0-0037-48c1-b395-f1d6f5936862}; !- HVAC Component

OS:Sizing:Zone,
  {ae6c88a5-e697-4083-a4a2-364240bcce92}, !- Handle
  {c12783d0-0037-48c1-b395-f1d6f5936862}, !- Zone or ZoneList Name
  SupplyAirTemperature,                   !- Zone Cooling Design Supply Air Temperature Input Method
  14,                                     !- Zone Cooling Design Supply Air Temperature {C}
  11.11,                                  !- Zone Cooling Design Supply Air Temperature Difference {deltaC}
  SupplyAirTemperature,                   !- Zone Heating Design Supply Air Temperature Input Method
  40,                                     !- Zone Heating Design Supply Air Temperature {C}
  11.11,                                  !- Zone Heating Design Supply Air Temperature Difference {deltaC}
  0.0085,                                 !- Zone Cooling Design Supply Air Humidity Ratio {kg-H2O/kg-air}
  0.008,                                  !- Zone Heating Design Supply Air Humidity Ratio {kg-H2O/kg-air}
  ,                                       !- Zone Heating Sizing Factor
  ,                                       !- Zone Cooling Sizing Factor
  DesignDay,                              !- Cooling Design Air Flow Method
  ,                                       !- Cooling Design Air Flow Rate {m3/s}
  ,                                       !- Cooling Minimum Air Flow per Zone Floor Area {m3/s-m2}
  ,                                       !- Cooling Minimum Air Flow {m3/s}
  ,                                       !- Cooling Minimum Air Flow Fraction
  DesignDay,                              !- Heating Design Air Flow Method
  ,                                       !- Heating Design Air Flow Rate {m3/s}
  ,                                       !- Heating Maximum Air Flow per Zone Floor Area {m3/s-m2}
  ,                                       !- Heating Maximum Air Flow {m3/s}
  ,                                       !- Heating Maximum Air Flow Fraction
  No,                                     !- Account for Dedicated Outdoor Air System
  NeutralSupplyAir,                       !- Dedicated Outdoor Air System Control Strategy
  autosize,                               !- Dedicated Outdoor Air Low Setpoint Temperature for Design {C}
  autosize,                               !- Dedicated Outdoor Air High Setpoint Temperature for Design {C}
  Sensible Load Only No Latent Load,      !- Zone Load Sizing Method
  HumidityRatioDifference,                !- Zone Latent Cooling Design Supply Air Humidity Ratio Input Method
  ,                                       !- Zone Dehumidification Design Supply Air Humidity Ratio {kgWater/kgDryAir}
  0.005,                                  !- Zone Cooling Design Supply Air Humidity Ratio Difference {kgWater/kgDryAir}
  HumidityRatioDifference,                !- Zone Latent Heating Design Supply Air Humidity Ratio Input Method
  ,                                       !- Zone Humidification Design Supply Air Humidity Ratio {kgWater/kgDryAir}
  0.005,                                  !- Zone Humidification Design Supply Air Humidity Ratio Difference {kgWater/kgDryAir}
  ,                                       !- Zone Humidistat Dehumidification Set Point Schedule Name
  ,                                       !- Zone Humidistat Humidification Set Point Schedule Name
  ,                                       !- Design Zone Air Distribution Effectiveness in Cooling Mode
  ,                                       !- Design Zone Air Distribution Effectiveness in Heating Mode
  ,                                       !- Design Zone Secondary Recirculation Fraction {dimensionless}
  ,                                       !- Design Minimum Zone Ventilation Efficiency {dimensionless}
  Coincident;                             !- Sizing Option

OS:ZoneHVAC:EquipmentList,
  {4170b662-d3e6-4a83-9d57-cb420fb95c86}, !- Handle
  Zone HVAC Equipment List 2,             !- Name
  {c12783d0-0037-48c1-b395-f1d6f5936862}; !- Thermal Zone

OS:AdditionalProperties,
  {e5548fcb-c7f9-4282-a39a-ced1413a3495}, !- Handle
  {c12783d0-0037-48c1-b395-f1d6f5936862}, !- Object Name
  ObjectType,                             !- Feature Name 1
  String,                                 !- Feature Data Type 1
  attic - vented;                         !- Feature Value 1

OS:Space,
  {9d89ac24-0340-4f69-8ecc-234eda781918}, !- Handle
  attic - vented 1,                       !- Name
  ,                                       !- Space Type Name
  ,                                       !- Default Construction Set Name
  ,                                       !- Default Schedule Set Name
  ,                                       !- Direction of Relative North {deg}
  ,                                       !- X Origin {m}
  ,                                       !- Y Origin {m}
  ,                                       !- Z Origin {m}
  ,                                       !- Building Story Name
  {c12783d0-0037-48c1-b395-f1d6f5936862}, !- Thermal Zone Name
  ,                                       !- Part of Total Floor Area
  ,                                       !- Design Specification Outdoor Air Object Name
  ,                                       !- Building Unit Name
  356.389957095237;                       !- Volume {m3}

OS:Material,
  {ab81f064-cd05-4848-99c3-1ed89b4a47a1}, !- Handle
  asphalt or fiberglass shingles,         !- Name