
OS:Version,
  {d9aa6a46-59d0-4b61-82f4-7bcb04765271}, !- Handle
  3.10.0;                                 !- Version Identifier

OS:SimulationControl,
  {184e8c41-462c-4417-8852-edad3e50a152}, !- Handle
  ,                                       !- Do Zone Sizing Calculation
  ,                                       !- Do System Sizing Calculation
  ,                                       !- Do Plant Sizing Calculation
  No;                                     !- Run Simulation for Sizing Periods

OS:Timestep,
  {df2e550a-f610-4cd9-9ace-1fa9b01ddfb9}, !- Handle
  1;                                      !- Number of Timesteps per Hour

OS:ShadowCalculation,
  {d3ed9f2b-e801-48c8-ac8a-c485de7d0050}, !- Handle
  PolygonClipping,                        !- Shading Calculation Method
  ,                                       !- Shading Calculation Update Frequency Method
  20,                                     !- Shading Calculation Update Frequency
  200,                                    !- Maximum Figures in Shadow Overlap Calculations
  ,                                       !- Polygon Clipping Algorithm
  512,                                    !- Pixel Counting Resolution
  ,                                       !- Sky Diffuse Modeling Algorithm
  No,                                     !- Output External Shading Calculation Results
  No,                                     !- Disable Self-Shading Within Shading Zone Groups
  No;                                     !- Disable Self-Shading From Shading Zone Groups to Other Zones

OS:SurfaceConvectionAlgorithm:Outside,
  {3e43899b-3e68-41d9-bcbd-c254fcb30b27}, !- Handle
  DOE-2;                                  !- Algorithm

OS:SurfaceConvectionAlgorithm:Inside,
  {b2939bb8-1394-4432-ba9b-1b10c54c444a}, !- Handle
  TARP;                                   !- Algorithm

OS:ZoneCapacitanceMultiplier:ResearchSpecial,
  {6cdb5016-55f5-4f42-a1a1-f80a68c4d73c}, !- Handle
  7,                                      !- Temperature Capacity Multiplier
  15,                                     !- Humidity Capacity Multiplier
  ;                                       !- Carbon Dioxide Capacity Multiplier

OS:ConvergenceLimits,
  {0af162c5-25a8-49a2-a6d6-792bf1103b43}, !- Handle
  0;                                      !- Minimum System Timestep {minutes}

OS:RunPeriod,
  {224c6fa4-214f-4be0-a332-5c0cf3c406c3}, !- Handle
  Run Period 1,                           !- Name
  1,                                      !- Begin Month
  1,                                      !- Begin Day of Month
  12,                                     !- End Month
  31,                                     !- End Day of Month
  ,                                       !- Use Weather File Holidays and Special Days
  ,                                       !- Use Weather File Daylight Saving Period
  ,                                       !- Apply Weekend Holiday Rule
  ,                                       !- Use Weather File Rain Indicators
  ,                                       !- Use Weather File Snow Indicators
  ;                                       !- Number of Times Runperiod to be Repeated

OS:PerformancePrecisionTradeoffs,
  {76119e8f-0398-475c-8e9b-088e76e541e2}, !- Handle
  ,                                       !- Use Coil Direct Solutions
  CarrollMRT;                             !- Zone Radiant Exchange Algorithm

OS:WeatherFile,
  {f86a2c21-d684-4cb4-ab47-7eb0ee0a838f}, !- Handle
  Buffalo Niagara Intl Ap,                !- City
  NY,                                     !- State Province Region
  USA,                                    !- Country
  TMY3,                                   !- Data Source
  725280,                                 !- WMO Number
  42.93,                                  !- Latitude {deg}
  -78.73,                                 !- Longitude {deg}
  -5,                                     !- Time Zone {hr}
  215,                                    !- Elevation {m}
  /Users/nmoore/github/urbanopt-example-geojson-project/example_project/weather/USA_NY_Buffalo-Greater.Buffalo.Intl.AP.725280_TMY3.epw, !- Url
  6B50E0FF,                               !- Checksum
  ,                                       !- Start Date Actual Year
  Sunday;                                 !- Start Day of Week

OS:YearDescription,
  {8055b1c1-3679-4735-b12d-7645b6534edd}, !- Handle
  2007,                                   !- Calendar Year
  ,                                       !- Day of Week for Start Day
  ;                                       !- Is Leap Year

OS:Site,
  {1b0e706d-2957-4a9b-a5b0-9e872a2e63cf}, !- Handle
  Buffalo Niagara Intl Ap_NY,             !- Name
  42.93,                                  !- Latitude {deg}
  -78.73,                                 !- Longitude {deg}
  -5,                                     !- Time Zone {hr}
  215,                                    !- Elevation {m}
  Suburbs,                                !- Terrain
  Yes;                                    !- Keep Site Location Information

OS:RunPeriodControl:DaylightSavingTime,
  {9ef8ddc1-e232-4037-b92f-c3d19618a729}, !- Handle
  Mar 12,                                 !- Start Date
  Nov 5;                                  !- End Date

OS:Site:GroundTemperature:Shallow,
  {c80d2636-9976-40eb-b84b-e9de3e5af6b8}, !- Handle
  4.30207395723828,                       !- January Surface Ground Temperature {C}
  2.29327249652502,                       !- February Surface Ground Temperature {C}
  2.13240047156047,                       !- March Surface Ground Temperature {C}
  3.08567940719286,                       !- April Surface Ground Temperature {C}
  6.91256312497526,                       !- May Surface Ground Temperature {C}
  10.7216195949507,                       !- June Surface Ground Temperature {C}
  14.0238679822574,                       !- July Surface Ground Temperature {C}
  16.1157611184724,                       !- August Surface Ground Temperature {C}
  16.2934789303462,                       !- September Surface Ground Temperature {C}
  14.5920754632847,                       !- October Surface Ground Temperature {C}
  11.374036348653,                        !- November Surface Ground Temperature {C}
  7.68182621661674;                       !- December Surface Ground Temperature {C}

OS:ThermalZone,
  {cac57777-89ac-493b-9b9e-7a48974d5083}, !- Handle
  conditioned space,                      !- Name
  1,                                      !- Multiplier
  ,                                       !- Ceiling Height {m}
  692.06373070848,                        !- Volume {m3}
  ,                                       !- Floor Area {m2}
  ,                                       !- Zone Inside Convection Algorithm
  ,                                       !- Zone Outside Convection Algorithm
  ,                                       !- Zone Conditioning Equipment List Name
  {fcb926f8-810a-4766-9994-7f5cd7d29cb8}, !- Zone Air Inlet Port List
  {8bb9b506-0959-4d39-8a76-5f7010e9906c}, !- Zone Air Exhaust Port List
  {ef94431c-43a2-4c75-a56d-d97846a6f543}, !- Zone Air Node Name
  {df2fa30e-a476-4f28-a105-cc204748b803}, !- Zone Return Air Port List
  ,                                       !- Primary Daylighting Control Name
  ,                                       !- Fraction of Zone Controlled by Primary Daylighting Control
  ,                                       !- Secondary Daylighting Control Name
  ,                                       !- Fraction of Zone Controlled by Secondary Daylighting Control
  ,                                       !- Illuminance Map Name
  ,                                       !- Group Rendering Name
  {6fd4cb4f-c487-44eb-8e55-2e5e1fc9c11a}, !- Thermostat Name
  No;                                     !- Use Ideal Air Loads

OS:Node,
  {7b4a9684-0fa2-4d52-b645-566b2a2d5664}, !- Handle
  Node 1,                                 !- Name
  {ef94431c-43a2-4c75-a56d-d97846a6f543}, !- Inlet Port
  ;                                       !- Outlet Port

OS:Connection,
  {ef94431c-43a2-4c75-a56d-d97846a6f543}, !- Handle
  {cac57777-89ac-493b-9b9e-7a48974d5083}, !- Source Object
  11,                                     !- Outlet Port
  {7b4a9684-0fa2-4d52-b645-566b2a2d5664}, !- Target Object
  2;                                      !- Inlet Port

OS:PortList,
  {fcb926f8-810a-4766-9994-7f5cd7d29cb8}, !- Handle
  {cac57777-89ac-493b-9b9e-7a48974d5083}, !- HVAC Component
  {7402c1a1-0502-476e-bb84-b8ab36506e7b}, !- Port 1
  {cba2eb3a-99ff-4d25-b099-5b3576c6cbbb}; !- Port 2

OS:PortList,
  {8bb9b506-0959-4d39-8a76-5f7010e9906c}, !- Handle
  {cac57777-89ac-493b-9b9e-7a48974d5083}; !- HVAC Component

OS:PortList,
  {df2fa30e-a476-4f28-a105-cc204748b803}, !- Handle
  {cac57777-89ac-493b-9b9e-7a48974d5083}, !- HVAC Component
  {ccab4060-bf0a-4ff3-96df-8d0c1419ed2b}, !- Port 1
  {c0259ee7-88eb-429b-bd2a-bb99b49a774e}; !- Port 2

OS:Sizing:Zone,
  {69c2fa84-fbac-4e9f-a0ef-06dedeaad5b6}, !- Handle
  {cac57777-89ac-493b-9b9e-7a48974d5083}, !- Zone or ZoneList Name
  SupplyAirTemperature,                   !- Zone Cooling Design Supply Air Temperature Input Method
  14,                                     !- Zone Cooling Design Supply Air Temperature {C}
  11.11,                                  !- Zone Cooling Design Supply Air Temperature Difference {deltaC}
  SupplyAirTemperature,                   !- Zone Heating Design Supply Air Temperature Input Method
  40,                                     !- Zone Heating Design Supply Air Temperature {C}
  11.11,                                  !- Zone Heating Design Supply Air Temperature Difference {deltaC}
  0.0085,                                 !- Zone Cooling Design Supply Air Humidity Ratio {kg-H2O/kg-air}
  0.008,                                  !- Zone Heating Design Supply Air Humidity Ratio {kg-H2O/kg-air}
  ,                                       !- Zone Heating Sizing Factor
  ,                                       !- Zone Cooling Sizing Factor
  DesignDay,                              !- Cooling Design Air Flow Method
  ,                                       !- Cooling Design Air Flow Rate {m3/s}
  ,                                       !- Cooling Minimum Air Flow per Zone Floor Area {m3/s-m2}
  ,                                       !- Cooling Minimum Air Flow {m3/s}
  ,                                       !- Cooling Minimum Air Flow Fraction
  DesignDay,                              !- Heating Design Air Flow Method
  ,                                       !- Heating Design Air Flow Rate {m3/s}
  ,                                       !- Heating Maximum Air Flow per Zone Floor Area {m3/s-m2}
  ,                                       !- Heating Maximum Air Flow {m3/s}
  ,                                       !- Heating Maximum Air Flow Fraction
  No,                                     !- Account for Dedicated Outdoor Air System
  NeutralSupplyAir,                       !- Dedicated Outdoor Air System Control Strategy
  autosize,                               !- Dedicated Outdoor Air Low Setpoint Temperature for Design {C}
  autosize,                               !- Dedicated Outdoor Air High Setpoint Temperature for Design {C}
  Sensible Load Only No Latent Load,      !- Zone Load Sizing Method
  HumidityRatioDifference,                !- Zone Latent Cooling Design Supply Air Humidity Ratio Input Method
  ,                                       !- Zone Dehumidification Design Supply Air Humidity Ratio {kgWater/kgDryAir}
  0.005,                                  !- Zone Cooling Design Supply Air Humidity Ratio Difference {kgWater/kgDryAir}
  HumidityRatioDifference,                !- Zone Latent Heating Design Supply Air Humidity Ratio Input Method
  ,                                       !- Zone Humidification Design Supply Air Humidity Ratio {kgWater/kgDryAir}
  0.005,                                  !- Zone Humidification Design Supply Air Humidity Ratio Difference {kgWater/kgDryAir}
  ,                                       !- Zone Humidistat Dehumidification Set Point Schedule Name
  ,                                       !- Zone Humidistat Humidification Set Point Schedule Name
  ,                                       !- Design Zone Air Distribution Effectiveness in Cooling Mode
  ,                                       !- Design Zone Air Distribution Effectiveness in Heating Mode
  ,                                       !- Design Zone Secondary Recirculation Fraction {dimensionless}
  ,                                       !- Design Minimum Zone Ventilation Efficiency {dimensionless}
  Coincident;                             !- Sizing Option

OS:ZoneHVAC:EquipmentList,
  {a09ffff4-90d8-4cc2-ab74-59a45fd74e27}, !- Handle
  Zone HVAC Equipment List 1,             !- Name
  {cac57777-89ac-493b-9b9e-7a48974d5083}, !- Thermal Zone
  ,                                       !- Load Distribution Scheme
  {6dc99a10-9987-445e-b02b-bfed1c92568c}, !- Zone Equipment 1
  1,                                      !- Zone Equipment Cooling Sequence 1
  1,                                      !- Zone Equipment Heating or No-Load Sequence 1
  {afdfbb75-2ea5-4a81-bf10-601aa49313a3}, !- Zone Equipment Sequential Cooling Fraction Schedule Name 1
  {fa739311-f2ab-4b4b-944c-b4123140c719}, !- Zone Equipment Sequential Heating Fraction Schedule Name 1
  {531c19aa-4774-4b8c-9505-6d3a31c97b28}, !- Zone Equipment 2
  2,                                      !- Zone Equipment Cooling Sequence 2
  2,                                      !- Zone Equipment Heating or No-Load Sequence 2
  {63fc5b79-f227-40fd-9e28-06b46f5b1196}, !- Zone Equipment Sequential Cooling Fraction Schedule Name 2
  {a2080b7d-79d0-449f-b4f0-46be1641eb07}; !- Zone Equipment Sequential Heating Fraction Schedule Name 2

OS:AdditionalProperties,
  {9056f701-ee93-4bc7-9736-6a20298a94d1}, !- Handle
  {cac57777-89ac-493b-9b9e-7a48974d5083}, !- Object Name
  ObjectType,                             !- Feature Name 1
  String,                                 !- Feature Data Type 1
  conditioned space;                      !- Feature Value 1

OS:Space,
  {de3c8078-1afc-46e0-a334-55e4d8195fd4}, !- Handle
  conditioned space 1,                    !- Name
  ,                                       !- Space Type Name
  ,                                       !- Default Construction Set Name
  ,                                       !- Default Schedule Set Name
  ,                                       !- Direction of Relative North {deg}
  ,                                       !- X Origin {m}
  ,                                       !- Y Origin {m}
  ,                                       !- Z Origin {m}
  ,                                       !- Building Story Name
  {cac57777-89ac-493b-9b9e-7a48974d5083}, !- Thermal Zone Name
  ,                                       !- Part of Total Floor Area
  ,                                       !- Design Specification Outdoor Air Object Name
  ,                                       !- Building Unit Name
  692.06373070848;                        !- Volume {m3}

OS:Schedule:Ruleset,
  {3b99c196-28db-4af7-a8d6-b064983b47e2}, !- Handle
  heating setpoint,                       !- Name
  {57f35cef-8ff6-4ca5-a60e-7dfbe9bf3e68}, !- Schedule Type Limits Name
  {0f8fb06e-a75e-4929-acc6-b5c1d9adf591}; !- Default Day Schedule Name

OS:Schedule:Day,
  {0f8fb06e-a75e-4929-acc6-b5c1d9adf591}, !- Handle
  heating setpoint default day,           !- Name
  {57f35cef-8ff6-4ca5-a60e-7dfbe9bf3e68}, !- Schedule Type Limits Name
  ,                                       !- Interpolate to Timestep
  24,                                     !- Hour 1
  0,                                      !- Minute 1
  0;                                      !- Value Until Time 1

OS:Schedule:Rule,
  {0d123c27-c152-4e6e-a14f-e7b4c0ce09d3}, !- Handle
  heating setpoint allday rule,           !- Name
  {3b99c196-28db-4af7-a8d6-b064983b47e2}, !- Schedule Ruleset Name
  0,                                      !- Rule Order
  {5103a19a-c29d-4637-80bc-604afcb67654}, !- Day Schedule Name
  Yes,                                    !- Apply Sunday
  Yes,                                    !- Apply Monday
  Yes,                                    !- Apply Tuesday
  Yes,                                    !- Apply Wednesday
  Yes,                                    !- Apply Thursday
  Yes,                                    !- Apply Friday
  Yes,                                    !- Apply Saturday
  DateRange,                              !- Date Specification Type
  1,                                      !- Start Month
  1,                                      !- Start Day
  12,                                     !- End Month
  31;                                     !- End Day

OS:Schedule:Day,
  {5103a19a-c29d-4637-80bc-604afcb67654}, !- Handle
  heating setpoint day,                   !- Name
  {57f35cef-8ff6-4ca5-a60e-7dfbe9bf3e68}, !- Schedule Type Limits Name
  ,                                       !- Interpolate to Timestep
  24,                                     !- Hour 1
  0,                                      !- Minute 1
  20;                                     !- Value Until Time 1

OS:Schedule:Ruleset,
  {5e825f64-267a-47a7-8167-5b8113fb9100}, !- Handle
  cooling setpoint,                       !- Name
  {57f35cef-8ff6-4ca5-a60e-7dfbe9bf3e68}, !- Schedule Type Limits Name
  {c55d5aed-0594-450b-b11d-4c8f3109fdbe}; !- Default Day Schedule Name

OS:Schedule:Day,
  {c55d5aed-0594-450b-b11d-4c8f3109fdbe}, !- Handle
  cooling setpoint default day,           !- Name
  {57f35cef-8ff6-4ca5-a60e-7dfbe9bf3e68}, !- Schedule Type Limits Name
  ,                                       !- Interpolate to Timestep
  24,                                     !- Hour 1
  0,                                      !- Minute 1
  0;                                      !- Value Until Time 1

OS:Schedule:Rule,
  {e97aee1c-eea9-4644-8384-785d9cce8b07}, !- Handle
  cooling setpoint allday rule,           !- Name
  {5e825f64-267a-47a7-8167-5b8113fb9100}, !- Schedule Ruleset Name
  0,                                      !- Rule Order
  {353b3282-5ef8-4a64-9c5e-9ea81649c477}, !- Day Schedule Name
  Yes,                                    !- Apply Sunday
  Yes,                                    !- Apply Monday
  Yes,                                    !- Apply Tuesday
  Yes,                                    !- Apply Wednesday
  Yes,                                    !- Apply Thursday
  Yes,                                    !- Apply Friday
  Yes,                                    !- Apply Saturday
  DateRange,                              !- Date Specification Type
  1,                                      !- Start Month
  1,                                      !- Start Day
  12,                                     !- End Month
  31;                                     !- End Day

OS:Schedule:Day,
  {353b3282-5ef8-4a64-9c5e-9ea81649c477}, !- Handle
  cooling setpoint day,                   !- Name
  {57f35cef-8ff6-4ca5-a60e-7dfbe9bf3e68}, !- Schedule Type Limits Name
  ,                                       !- Interpolate to Timestep
  24,                                     !- Hour 1
  0,                                      !- Minute 1
  25.5555555555556;                       !- Value Until Time 1

OS:ThermostatSetpoint:DualSetpoint,
  {6fd4cb4f-c487-44eb-8e55-2e5e1fc9c11a}, !- Handle
  conditioned space temperature setpoint, !- Name
  {3b99c196-28db-4af7-a8d6-b064983b47e2}, !- Heating Setpoint Temperature Schedule Name
  {5e825f64-267a-47a7-8167-5b8113fb9100}, !- Cooling Setpoint Temperature Schedule Name
  0;                                      !- Temperature Difference Between Cutout And Setpoint {deltaC}

OS:ScheduleTypeLimits,
  {57f35cef-8ff6-4ca5-a60e-7dfbe9bf3e68}, !- Handle
  Temperature,                            !- Name
  ,                                       !- Lower Limit Value
  ,                                       !- Upper Limit Value
  Continuous,                             !- Numeric Type
  Temperature;                            !- Unit Type

OS:Surface,
  {f3433f5f-114e-4b90-9ad8-109bd6c31ad7}, !- Handle
  Roof1,                                  !- Name
  RoofCeiling,                            !- Surface Type
  {37ff5212-c5a8-4b4b-bc04-4866d9ec0502}, !- Construction Name
  {9a95cf60-663b-4f6c-9718-67aecc810a35}, !- Space Name
  Outdoors,                               !- Outside Boundary Condition
  ,                                       !- Outside Boundary Condition Object
  SunExposed,                             !- Sun Exposure
  WindExposed,                            !- Wind Exposure
  ,                                       !- View Factor to Ground
  ,                                       !- Number of Vertices
  -26.9347048849634, 58.0557891618865, 2.4384, !- X,Y,Z Vertex 1 {m}
  -26.9347048849634, 46.7895631136661, 8.0715130241102, !- X,Y,Z Vertex 2 {m}
  -14.3386812381136, 46.7895631136661, 8.0715130241102, !- X,Y,Z Vertex 3 {m}
  -14.3386812381136, 58.0557891618865, 2.4384; !- X,Y,Z Vertex 4 {m}

OS:AdditionalProperties,
  {2d8d7d86-8051-40ab-9c80-a80ddddece81}, !- Handle
  {f3433f5f-114e-4b90-9ad8-109bd6c31ad7}, !- Object Name
  Length,                                 !- Feature Name 1
  Double,                                 !- Feature Data Type 1
  41.325536899113608,                     !- Feature Value 1
  Width,                                  !- Feature Name 2
  Double,                                 !- Feature Data Type 2
  41.325536899113601,                     !- Feature Value 2
  Azimuth,                                !- Feature Name 3
  Integer,                                !- Feature Data Type 3
  0,                                      !- Feature Value 3
  Tilt,                                   !- Feature Name 4
  Double,                                 !- Feature Data Type 4
  0.5,                                    !- Feature Value 4
  SurfaceType,                            !- Feature Name 5
  String,                                 !- Feature Data Type 5
  Roof;                                   !- Feature Value 5

OS:ThermalZone,
  {fb10eff8-fe95-4f17-aefa-58c39efa6454}, !- Handle
  attic - vented,                         !- Name
  1,                                      !- Multiplier
  ,                                       !- Ceiling Height {m}
  356.390921899745,                       !- Volume {m3}
  ,                                       !- Floor Area {m2}
  ,                                       !- Zone Inside Convection Algorithm
  ,                                       !- Zone Outside Convection Algorithm
  ,                                       !- Zone Conditioning Equipment List Name
  {ee16ce34-72b3-4ce4-b400-dd6e24292fa4}, !- Zone Air Inlet Port List
  {84afc995-481f-46c7-a751-b83e07355ab8}, !- Zone Air Exhaust Port List
  {ff623d6c-0e99-46db-8275-3544dc4c093d}, !- Zone Air Node Name
  {98070f61-89d6-4d6a-ace8-f022037c95a2}, !- Zone Return Air Port List
  ,                                       !- Primary Daylighting Control Name
  ,                                       !- Fraction of Zone Controlled by Primary Daylighting Control
  ,                                       !- Secondary Daylighting Control Name
  ,                                       !- Fraction of Zone Controlled by Secondary Daylighting Control
  ,                                       !- Illuminance Map Name
  ,                                       !- Group Rendering Name
  ,                                       !- Thermostat Name
  No;                                     !- Use Ideal Air Loads

OS:Node,
  {af9a41f9-e232-4832-bdaa-d9083950c5cb}, !- Handle
  Node 2,                                 !- Name
  {ff623d6c-0e99-46db-8275-3544dc4c093d}, !- Inlet Port
  ;                                       !- Outlet Port

OS:Connection,
  {ff623d6c-0e99-46db-8275-3544dc4c093d}, !- Handle
  {fb10eff8-fe95-4f17-aefa-58c39efa6454}, !- Source Object
  11,                                     !- Outlet Port
  {af9a41f9-e232-4832-bdaa-d9083950c5cb}, !- Target Object
  2;                                      !- Inlet Port

OS:PortList,
  {ee16ce34-72b3-4ce4-b400-dd6e24292fa4}, !- Handle
  {fb10eff8-fe95-4f17-aefa-58c39efa6454}; !- HVAC Component

OS:PortList,
  {84afc995-481f-46c7-a751-b83e07355ab8}, !- Handle
  {fb10eff8-fe95-4f17-aefa-58c39efa6454}; !- HVAC Component

OS:PortList,
  {98070f61-89d6-4d6a-ace8-f022037c95a2}, !- Handle
  {fb10eff8-fe95-4f17-aefa-58c39efa6454}; !- HVAC Component

OS:Sizing:Zone,
  {8fffdd5d-d8de-42cc-b2e7-5158c3477e27}, !- Handle
  {fb10eff8-fe95-4f17-aefa-58c39efa6454}, !- Zone or ZoneList Name
  SupplyAirTemperature,                   !- Zone Cooling Design Supply Air Temperature Input Method
  14,                                     !- Zone Cooling Design Supply Air Temperature {C}
  11.11,                                  !- Zone Cooling Design Supply Air Temperature Difference {deltaC}
  SupplyAirTemperature,                   !- Zone Heating Design Supply Air Temperature Input Method
  40,                                     !- Zone Heating Design Supply Air Temperature {C}
  11.11,                                  !- Zone Heating Design Supply Air Temperature Difference {deltaC}
  0.0085,                                 !- Zone Cooling Design Supply Air Humidity Ratio {kg-H2O/kg-air}
  0.008,                                  !- Zone Heating Design Supply Air Humidity Ratio {kg-H2O/kg-air}
  ,                                       !- Zone Heating Sizing Factor
  ,                                       !- Zone Cooling Sizing Factor
  DesignDay,                              !- Cooling Design Air Flow Method
  ,                                       !- Cooling Design Air Flow Rate {m3/s}
  ,                                       !- Cooling Minimum Air Flow per Zone Floor Area {m3/s-m2}
  ,                                       !- Cooling Minimum Air Flow {m3/s}
  ,                                       !- Cooling Minimum Air Flow Fraction
  DesignDay,                              !- Heating Design Air Flow Method
  ,                                       !- Heating Design Air Flow Rate {m3/s}
  ,                                       !- Heating Maximum Air Flow per Zone Floor Area {m3/s-m2}
  ,                                       !- Heating Maximum Air Flow {m3/s}
  ,                                       !- Heating Maximum Air Flow Fraction
  No,                                     !- Account for Dedicated Outdoor Air System
  NeutralSupplyAir,                       !- Dedicated Outdoor Air System Control Strategy
  autosize,                               !- Dedicated Outdoor Air Low Setpoint Temperature for Design {C}
  autosize,                               !- Dedicated Outdoor Air High Setpoint Temperature for Design {C}
  Sensible Load Only No Latent Load,      !- Zone Load Sizing Method
  HumidityRatioDifference,                !- Zone Latent Cooling Design Supply Air Humidity Ratio Input Method
  ,                                       !- Zone Dehumidification Design Supply Air Humidity Ratio {kgWater/kgDryAir}
  0.005,                                  !- Zone Cooling Design Supply Air Humidity Ratio Difference {kgWater/kgDryAir}
  HumidityRatioDifference,                !- Zone Latent Heating Design Supply Air Humidity Ratio Input Method
  ,                                       !- Zone Humidification Design Supply Air Humidity Ratio {kgWater/kgDryAir}
  0.005,                                  !- Zone Humidification Design Supply Air Humidity Ratio Difference {kgWater/kgDryAir}
  ,                                       !- Zone Humidistat Dehumidification Set Point Schedule Name
  ,                                       !- Zone Humidistat Humidification Set Point Schedule Name
  ,                                       !- Design Zone Air Distribution Effectiveness in Cooling Mode
  ,                                       !- Design Zone Air Distribution Effectiveness in Heating Mode
  ,                                       !- Design Zone Secondary Recirculation Fraction {dimensionless}
  ,                                       !- Design Minimum Zone Ventilation Efficiency {dimensionless}
  Coincident;                             !- Sizing Option

OS:ZoneHVAC:EquipmentList,
  {62a814e1-ae2a-4e75-92e9-c0585b1cad8c}, !- Handle
  Zone HVAC Equipment List 2,             !- Name
  {fb10eff8-fe95-4f17-aefa-58c39efa6454}; !- Thermal Zone

OS:AdditionalProperties,
  {63d84404-826f-42ea-a2da-658f85fe4698}, !- Handle
  {fb10eff8-fe95-4f17-aefa-58c39efa6454}, !- Object Name
  ObjectType,                             !- Feature Name 1
  String,                                 !- Feature Data Type 1
  attic - vented;                         !- Feature Value 1

OS:Space,
  {9a95cf60-663b-4f6c-9718-67aecc810a35}, !- Handle
  attic - vented 1,                       !- Name
  ,                                       !- Space Type Name
  ,                                       !- Default Construction Set Name
  ,                                       !- Default Schedule Set Name
  ,                                       !- Direction of Relative North {deg}
  ,                                       !- X Origin {m}
  ,                                       !- Y Origin {m}
  ,                                       !- Z Origin {m}
  ,                                       !- Building Story Name
  {fb10eff8-fe95-4f17-aefa-58c39efa6454}, !- Thermal Zone Name
  ,                                       !- Part of Total Floor Area
  ,                                       !- Design Specification Outdoor Air Object Name
  ,                                       !- Building Unit Name
  356.390921899745;                       !- Volume {m3}

OS:Material,