
OS:Version,
  {230691b8-b9ab-4dc8-ba18-44acc815b76a}, !- Handle
  3.9.0;                                  !- Version Identifier

OS:SimulationControl,
  {b63b2dda-96fa-4963-9739-0b146f32dff1}, !- Handle
  ,                                       !- Do Zone Sizing Calculation
  ,                                       !- Do System Sizing Calculation
  ,                                       !- Do Plant Sizing Calculation
  No;                                     !- Run Simulation for Sizing Periods

OS:Timestep,
  {f04206a0-2607-4693-8b69-95e3de9ec009}, !- Handle
  1;                                      !- Number of Timesteps per Hour

OS:ShadowCalculation,
  {0cf51e1a-fbeb-4667-b624-aee619c1af1a}, !- Handle
  PolygonClipping,                        !- Shading Calculation Method
  ,                                       !- Shading Calculation Update Frequency Method
  20,                                     !- Shading Calculation Update Frequency
  200,                                    !- Maximum Figures in Shadow Overlap Calculations
  ,                                       !- Polygon Clipping Algorithm
  512,                                    !- Pixel Counting Resolution
  ,                                       !- Sky Diffuse Modeling Algorithm
  No,                                     !- Output External Shading Calculation Results
  No,                                     !- Disable Self-Shading Within Shading Zone Groups
  No;                                     !- Disable Self-Shading From Shading Zone Groups to Other Zones

OS:SurfaceConvectionAlgorithm:Outside,
  {214128d2-ef1f-46ad-86d4-fdbdc6b693ef}, !- Handle
  DOE-2;                                  !- Algorithm

OS:SurfaceConvectionAlgorithm:Inside,
  {41c7f6cd-8015-4d85-93f3-2d78d9620a43}, !- Handle
  TARP;                                   !- Algorithm

OS:ZoneCapacitanceMultiplier:ResearchSpecial,
  {0556593c-6f23-4f83-888f-2223321474db}, !- Handle
  7,                                      !- Temperature Capacity Multiplier
  15,                                     !- Humidity Capacity Multiplier
  ;                                       !- Carbon Dioxide Capacity Multiplier

OS:ConvergenceLimits,
  {2f55fe8f-0a64-4d41-a044-77dbd1e5eac1}, !- Handle
  0;                                      !- Minimum System Timestep {minutes}

OS:RunPeriod,
  {01656d53-b872-4f7d-bccf-a6a66d7e587f}, !- Handle
  Run Period 1,                           !- Name
  1,                                      !- Begin Month
  1,                                      !- Begin Day of Month
  12,                                     !- End Month
  31,                                     !- End Day of Month
  ,                                       !- Use Weather File Holidays and Special Days
  ,                                       !- Use Weather File Daylight Saving Period
  ,                                       !- Apply Weekend Holiday Rule
  ,                                       !- Use Weather File Rain Indicators
  ,                                       !- Use Weather File Snow Indicators
  ;                                       !- Number of Times Runperiod to be Repeated

OS:PerformancePrecisionTradeoffs,
  {562fb456-d6ed-46c6-9b19-06a101bf9b40}, !- Handle
  ,                                       !- Use Coil Direct Solutions
  CarrollMRT;                             !- Zone Radiant Exchange Algorithm

OS:WeatherFile,
  {2774147a-3a8f-42cc-86ec-f130f8d1b473}, !- Handle
  Buffalo Niagara Intl Ap,                !- City
  NY,                                     !- State Province Region
  USA,                                    !- Country
  TMY3,                                   !- Data Source
  725280,                                 !- WMO Number
  42.93,                                  !- Latitude {deg}
  -78.73,                                 !- Longitude {deg}
  -5,                                     !- Time Zone {hr}
  215,                                    !- Elevation {m}
  /Users/nmoore/github/urbanopt-example-geojson-project/example_project/weather/USA_NY_Buffalo-Greater.Buffalo.Intl.AP.725280_TMY3.epw, !- Url
  6B50E0FF,                               !- Checksum
  ,                                       !- Start Date Actual Year
  Sunday;                                 !- Start Day of Week

OS:YearDescription,
  {62b1aaf1-b4b0-4c2d-877d-687551788e07}, !- Handle
  2007,                                   !- Calendar Year
  ,                                       !- Day of Week for Start Day
  ;                                       !- Is Leap Year

OS:Site,
  {0abdbdc5-bc13-473e-8b69-d1c1d77e98df}, !- Handle
  Buffalo Niagara Intl Ap_NY,             !- Name
  42.93,                                  !- Latitude {deg}
  -78.73,                                 !- Longitude {deg}
  -5,                                     !- Time Zone {hr}
  215,                                    !- Elevation {m}
  Suburbs,                                !- Terrain
  Yes;                                    !- Keep Site Location Information

OS:RunPeriodControl:DaylightSavingTime,
  {571e1561-02dd-406b-9068-04952b487c01}, !- Handle
  Mar 12,                                 !- Start Date
  Nov 5;                                  !- End Date

OS:Site:GroundTemperature:Shallow,
  {af131693-b93c-44d7-bc2c-b2596b065e03}, !- Handle
  4.30207395723828,                       !- January Surface Ground Temperature {C}
  2.29327249652502,                       !- February Surface Ground Temperature {C}
  2.13240047156047,                       !- March Surface Ground Temperature {C}
  3.08567940719286,                       !- April Surface Ground Temperature {C}
  6.91256312497526,                       !- May Surface Ground Temperature {C}
  10.7216195949507,                       !- June Surface Ground Temperature {C}
  14.0238679822574,                       !- July Surface Ground Temperature {C}
  16.1157611184724,                       !- August Surface Ground Temperature {C}
  16.2934789303462,                       !- September Surface Ground Temperature {C}
  14.5920754632847,                       !- October Surface Ground Temperature {C}
  11.374036348653,                        !- November Surface Ground Temperature {C}
  7.68182621661674;                       !- December Surface Ground Temperature {C}

OS:ThermalZone,
  {940bafc7-4e16-4644-8545-4da380439574}, !- Handle
  conditioned space,                      !- Name
  1,                                      !- Multiplier
  ,                                       !- Ceiling Height {m}
  692.06373070848,                        !- Volume {m3}
  ,                                       !- Floor Area {m2}
  ,                                       !- Zone Inside Convection Algorithm
  ,                                       !- Zone Outside Convection Algorithm
  ,                                       !- Zone Conditioning Equipment List Name
  {e30a37ce-06ed-49cf-9a4a-5e3222501a6a}, !- Zone Air Inlet Port List
  {3576dc67-8807-480a-b398-b7a8348f3e07}, !- Zone Air Exhaust Port List
  {aa46d2d0-f9a7-4be1-b52c-70bc0c78178e}, !- Zone Air Node Name
  {1308e7ba-5129-458c-9642-24b97e70a9c8}, !- Zone Return Air Port List
  ,                                       !- Primary Daylighting Control Name
  ,                                       !- Fraction of Zone Controlled by Primary Daylighting Control
  ,                                       !- Secondary Daylighting Control Name
  ,                                       !- Fraction of Zone Controlled by Secondary Daylighting Control
  ,                                       !- Illuminance Map Name
  ,                                       !- Group Rendering Name
  {876a0f9b-2a9d-4b68-a078-8c604f6e33fd}, !- Thermostat Name
  No;                                     !- Use Ideal Air Loads

OS:Node,
  {de2f2b75-85f5-437b-b4f1-2c44cc10f1fa}, !- Handle
  Node 1,                                 !- Name
  {aa46d2d0-f9a7-4be1-b52c-70bc0c78178e}, !- Inlet Port
  ;                                       !- Outlet Port

OS:Connection,
  {aa46d2d0-f9a7-4be1-b52c-70bc0c78178e}, !- Handle
  {940bafc7-4e16-4644-8545-4da380439574}, !- Source Object
  11,                                     !- Outlet Port
  {de2f2b75-85f5-437b-b4f1-2c44cc10f1fa}, !- Target Object
  2;                                      !- Inlet Port

OS:PortList,
  {e30a37ce-06ed-49cf-9a4a-5e3222501a6a}, !- Handle
  {940bafc7-4e16-4644-8545-4da380439574}, !- HVAC Component
  {2a4f3425-f318-4625-9587-9f8147ead682}, !- Port 1
  {ee60ea42-54ea-4b7e-809f-5e92d15b7c16}; !- Port 2

OS:PortList,
  {3576dc67-8807-480a-b398-b7a8348f3e07}, !- Handle
  {940bafc7-4e16-4644-8545-4da380439574}; !- HVAC Component

OS:PortList,
  {1308e7ba-5129-458c-9642-24b97e70a9c8}, !- Handle
  {940bafc7-4e16-4644-8545-4da380439574}, !- HVAC Component
  {b758b010-44fb-4833-801f-2a7e7232d6cc}, !- Port 1
  {c5715609-8523-46e0-abbf-a6fb2b76dbd4}; !- Port 2

OS:Sizing:Zone,
  {93ea37b9-2c47-43e7-9233-82653b376679}, !- Handle
  {940bafc7-4e16-4644-8545-4da380439574}, !- Zone or ZoneList Name
  SupplyAirTemperature,                   !- Zone Cooling Design Supply Air Temperature Input Method
  14,                                     !- Zone Cooling Design Supply Air Temperature {C}
  11.11,                                  !- Zone Cooling Design Supply Air Temperature Difference {deltaC}
  SupplyAirTemperature,                   !- Zone Heating Design Supply Air Temperature Input Method
  40,                                     !- Zone Heating Design Supply Air Temperature {C}
  11.11,                                  !- Zone Heating Design Supply Air Temperature Difference {deltaC}
  0.0085,                                 !- Zone Cooling Design Supply Air Humidity Ratio {kg-H2O/kg-air}
  0.008,                                  !- Zone Heating Design Supply Air Humidity Ratio {kg-H2O/kg-air}
  ,                                       !- Zone Heating Sizing Factor
  ,                                       !- Zone Cooling Sizing Factor
  DesignDay,                              !- Cooling Design Air Flow Method
  ,                                       !- Cooling Design Air Flow Rate {m3/s}
  ,                                       !- Cooling Minimum Air Flow per Zone Floor Area {m3/s-m2}
  ,                                       !- Cooling Minimum Air Flow {m3/s}
  ,                                       !- Cooling Minimum Air Flow Fraction
  DesignDay,                              !- Heating Design Air Flow Method
  ,                                       !- Heating Design Air Flow Rate {m3/s}
  ,                                       !- Heating Maximum Air Flow per Zone Floor Area {m3/s-m2}
  ,                                       !- Heating Maximum Air Flow {m3/s}
  ,                                       !- Heating Maximum Air Flow Fraction
  No,                                     !- Account for Dedicated Outdoor Air System
  NeutralSupplyAir,                       !- Dedicated Outdoor Air System Control Strategy
  autosize,                               !- Dedicated Outdoor Air Low Setpoint Temperature for Design {C}
  autosize,                               !- Dedicated Outdoor Air High Setpoint Temperature for Design {C}
  Sensible Load Only No Latent Load,      !- Zone Load Sizing Method
  HumidityRatioDifference,                !- Zone Latent Cooling Design Supply Air Humidity Ratio Input Method
  ,                                       !- Zone Dehumidification Design Supply Air Humidity Ratio {kgWater/kgDryAir}
  0.005,                                  !- Zone Cooling Design Supply Air Humidity Ratio Difference {kgWater/kgDryAir}
  HumidityRatioDifference,                !- Zone Latent Heating Design Supply Air Humidity Ratio Input Method
  ,                                       !- Zone Humidification Design Supply Air Humidity Ratio {kgWater/kgDryAir}
  0.005,                                  !- Zone Humidification Design Supply Air Humidity Ratio Difference {kgWater/kgDryAir}
  ,                                       !- Zone Humidistat Dehumidification Set Point Schedule Name
  ,                                       !- Zone Humidistat Humidification Set Point Schedule Name
  ,                                       !- Design Zone Air Distribution Effectiveness in Cooling Mode
  ,                                       !- Design Zone Air Distribution Effectiveness in Heating Mode
  ,                                       !- Design Zone Secondary Recirculation Fraction {dimensionless}
  ,                                       !- Design Minimum Zone Ventilation Efficiency {dimensionless}
  Coincident;                             !- Sizing Option

OS:ZoneHVAC:EquipmentList,
  {c8ef7a45-de6c-4464-bf82-a41bb17201fd}, !- Handle
  Zone HVAC Equipment List 1,             !- Name
  {940bafc7-4e16-4644-8545-4da380439574}, !- Thermal Zone
  ,                                       !- Load Distribution Scheme
  {7543db31-c5cf-491b-ab93-e1713e1443c8}, !- Zone Equipment 1
  1,                                      !- Zone Equipment Cooling Sequence 1
  1,                                      !- Zone Equipment Heating or No-Load Sequence 1
  {c0103eb2-cd96-4f46-a64d-b9a5910e4460}, !- Zone Equipment Sequential Cooling Fraction Schedule Name 1
  {fc2c7b42-39d9-45d9-986b-60bf06ecfde7}, !- Zone Equipment Sequential Heating Fraction Schedule Name 1
  {fe6021b3-a3a8-49ca-9551-6c103d097db0}, !- Zone Equipment 2
  2,                                      !- Zone Equipment Cooling Sequence 2
  2,                                      !- Zone Equipment Heating or No-Load Sequence 2
  {dd3c9e1c-7b9f-41fb-a3b0-710ea59f42ec}, !- Zone Equipment Sequential Cooling Fraction Schedule Name 2
  {eb7c26f8-00dc-4a4d-b1c2-f49d57ecbaf6}; !- Zone Equipment Sequential Heating Fraction Schedule Name 2

OS:AdditionalProperties,
  {4a0450df-a15c-4cc3-98bf-705412446113}, !- Handle
  {940bafc7-4e16-4644-8545-4da380439574}, !- Object Name
  ObjectType,                             !- Feature Name 1
  String,                                 !- Feature Data Type 1
  conditioned space;                      !- Feature Value 1

OS:Space,
  {8290ea0a-642b-4f8c-bbe4-87ce76ffabcb}, !- Handle
  conditioned space 1,                    !- Name
  ,                                       !- Space Type Name
  ,                                       !- Default Construction Set Name
  ,                                       !- Default Schedule Set Name
  ,                                       !- Direction of Relative North {deg}
  ,                                       !- X Origin {m}
  ,                                       !- Y Origin {m}
  ,                                       !- Z Origin {m}
  ,                                       !- Building Story Name
  {940bafc7-4e16-4644-8545-4da380439574}, !- Thermal Zone Name
  ,                                       !- Part of Total Floor Area
  ,                                       !- Design Specification Outdoor Air Object Name
  ,                                       !- Building Unit Name
  692.06373070848;                        !- Volume {m3}

OS:Schedule:Ruleset,
  {65e58305-2aa3-4925-b3b4-5f120125073d}, !- Handle
  heating setpoint,                       !- Name
  {fd6d7cb5-7a49-4d1d-80f7-054766f40324}, !- Schedule Type Limits Name
  {e79c27e7-c298-49b0-b0b9-ca3f5e30d797}; !- Default Day Schedule Name

OS:Schedule:Day,
  {e79c27e7-c298-49b0-b0b9-ca3f5e30d797}, !- Handle
  heating setpoint default day,           !- Name
  {fd6d7cb5-7a49-4d1d-80f7-054766f40324}, !- Schedule Type Limits Name
  ,                                       !- Interpolate to Timestep
  24,                                     !- Hour 1
  0,                                      !- Minute 1
  0;                                      !- Value Until Time 1

OS:Schedule:Rule,
  {7c8f942f-623d-43d3-8ca0-28b1f930a703}, !- Handle
  heating setpoint allday rule,           !- Name
  {65e58305-2aa3-4925-b3b4-5f120125073d}, !- Schedule Ruleset Name
  0,                                      !- Rule Order
  {24a5cb8c-a6e3-489d-93ca-ecbc68a56d7a}, !- Day Schedule Name
  Yes,                                    !- Apply Sunday
  Yes,                                    !- Apply Monday
  Yes,                                    !- Apply Tuesday
  Yes,                                    !- Apply Wednesday
  Yes,                                    !- Apply Thursday
  Yes,                                    !- Apply Friday
  Yes,                                    !- Apply Saturday
  DateRange,                              !- Date Specification Type
  1,                                      !- Start Month
  1,                                      !- Start Day
  12,                                     !- End Month
  31;                                     !- End Day

OS:Schedule:Day,
  {24a5cb8c-a6e3-489d-93ca-ecbc68a56d7a}, !- Handle
  heating setpoint day,                   !- Name
  {fd6d7cb5-7a49-4d1d-80f7-054766f40324}, !- Schedule Type Limits Name
  ,                                       !- Interpolate to Timestep
  24,                                     !- Hour 1
  0,                                      !- Minute 1
  20;                                     !- Value Until Time 1

OS:Schedule:Ruleset,
  {248e1d8b-d6d5-443f-aae4-a0abb796ea87}, !- Handle
  cooling setpoint,                       !- Name
  {fd6d7cb5-7a49-4d1d-80f7-054766f40324}, !- Schedule Type Limits Name
  {75a7c680-fd25-4af2-878e-ca33832139f0}; !- Default Day Schedule Name

OS:Schedule:Day,
  {75a7c680-fd25-4af2-878e-ca33832139f0}, !- Handle
  cooling setpoint default day,           !- Name
  {fd6d7cb5-7a49-4d1d-80f7-054766f40324}, !- Schedule Type Limits Name
  ,                                       !- Interpolate to Timestep
  24,                                     !- Hour 1
  0,                                      !- Minute 1
  0;                                      !- Value Until Time 1

OS:Schedule:Rule,
  {bdb50803-3f1f-495a-9c08-622ce4da152e}, !- Handle
  cooling setpoint allday rule,           !- Name
  {248e1d8b-d6d5-443f-aae4-a0abb796ea87}, !- Schedule Ruleset Name
  0,                                      !- Rule Order
  {4277e5f0-98bf-4115-998e-d12cac01550d}, !- Day Schedule Name
  Yes,                                    !- Apply Sunday
  Yes,                                    !- Apply Monday
  Yes,                                    !- Apply Tuesday
  Yes,                                    !- Apply Wednesday
  Yes,                                    !- Apply Thursday
  Yes,                                    !- Apply Friday
  Yes,                                    !- Apply Saturday
  DateRange,                              !- Date Specification Type
  1,                                      !- Start Month
  1,                                      !- Start Day
  12,                                     !- End Month
  31;                                     !- End Day

OS:Schedule:Day,
  {4277e5f0-98bf-4115-998e-d12cac01550d}, !- Handle
  cooling setpoint day,                   !- Name
  {fd6d7cb5-7a49-4d1d-80f7-054766f40324}, !- Schedule Type Limits Name
  ,                                       !- Interpolate to Timestep
  24,                                     !- Hour 1
  0,                                      !- Minute 1
  25.5555555555556;                       !- Value Until Time 1

OS:ThermostatSetpoint:DualSetpoint,
  {876a0f9b-2a9d-4b68-a078-8c604f6e33fd}, !- Handle
  conditioned space temperature setpoint, !- Name
  {65e58305-2aa3-4925-b3b4-5f120125073d}, !- Heating Setpoint Temperature Schedule Name
  {248e1d8b-d6d5-443f-aae4-a0abb796ea87}, !- Cooling Setpoint Temperature Schedule Name
  0;                                      !- Temperature Difference Between Cutout And Setpoint {deltaC}

OS:ScheduleTypeLimits,
  {fd6d7cb5-7a49-4d1d-80f7-054766f40324}, !- Handle
  Temperature,                            !- Name
  ,                                       !- Lower Limit Value
  ,                                       !- Upper Limit Value
  Continuous,                             !- Numeric Type
  Temperature;                            !- Unit Type

OS:Surface,
  {86379b95-2ee2-4d6c-8d11-51113369c9ce}, !- Handle
  Roof1,                                  !- Name
  RoofCeiling,                            !- Surface Type
  {f0b568ef-cfd1-4a22-9129-7f95faa4b6c0}, !- Construction Name
  {1db78025-b5c0-43e6-a4c7-4cde700a88a2}, !- Space Name
  Outdoors,                               !- Outside Boundary Condition
  ,                                       !- Outside Boundary Condition Object
  SunExposed,                             !- Sun Exposure
  WindExposed,                            !- Wind Exposure
  ,                                       !- View Factor to Ground
  ,                                       !- Number of Vertices
  -26.9347048849634, 58.0557891618865, 2.4384, !- X,Y,Z Vertex 1 {m}
  -26.9347048849634, 46.7895631136661, 8.0715130241102, !- X,Y,Z Vertex 2 {m}
  -14.3386812381136, 46.7895631136661, 8.0715130241102, !- X,Y,Z Vertex 3 {m}
  -14.3386812381136, 58.0557891618865, 2.4384; !- X,Y,Z Vertex 4 {m}

OS:AdditionalProperties,
  {8eb2e657-12e4-427a-8f53-d8dffcd11ef1}, !- Handle
  {86379b95-2ee2-4d6c-8d11-51113369c9ce}, !- Object Name
  Length,                                 !- Feature Name 1
  Double,                                 !- Feature Data Type 1
  41.325536899113608,                     !- Feature Value 1
  Width,                                  !- Feature Name 2
  Double,                                 !- Feature Data Type 2
  41.325536899113601,                     !- Feature Value 2
  Azimuth,                                !- Feature Name 3
  Integer,                                !- Feature Data Type 3
  0,                                      !- Feature Value 3
  Tilt,                                   !- Feature Name 4
  Double,                                 !- Feature Data Type 4
  0.5,                                    !- Feature Value 4
  SurfaceType,                            !- Feature Name 5
  String,                                 !- Feature Data Type 5
  Roof;                                   !- Feature Value 5

OS:ThermalZone,
  {e16cded5-2bbf-4c94-a782-df8e0c214bbe}, !- Handle
  attic - vented,                         !- Name
  1,                                      !- Multiplier
  ,                                       !- Ceiling Height {m}
  356.389957095237,                       !- Volume {m3}
  ,                                       !- Floor Area {m2}
  ,                                       !- Zone Inside Convection Algorithm
  ,                                       !- Zone Outside Convection Algorithm
  ,                                       !- Zone Conditioning Equipment List Name
  {ad7d09e6-4a29-4e9b-aa60-bccfca5a9993}, !- Zone Air Inlet Port List
  {53f19d20-a58c-49c9-9376-e52f78c8ecac}, !- Zone Air Exhaust Port List
  {8f67a15b-1da8-4a7f-b41d-cf5c31f9dc03}, !- Zone Air Node Name
  {a174eb2b-c4ba-4114-861d-e6087346d0db}, !- Zone Return Air Port List
  ,                                       !- Primary Daylighting Control Name
  ,                                       !- Fraction of Zone Controlled by Primary Daylighting Control
  ,                                       !- Secondary Daylighting Control Name
  ,                                       !- Fraction of Zone Controlled by Secondary Daylighting Control
  ,                                       !- Illuminance Map Name
  ,                                       !- Group Rendering Name
  ,                                       !- Thermostat Name
  No;                                     !- Use Ideal Air Loads

OS:Node,
  {464f1360-1a8a-43ee-9070-1d5b0e3b67af}, !- Handle
  Node 2,                                 !- Name
  {8f67a15b-1da8-4a7f-b41d-cf5c31f9dc03}, !- Inlet Port
  ;                                       !- Outlet Port

OS:Connection,
  {8f67a15b-1da8-4a7f-b41d-cf5c31f9dc03}, !- Handle
  {e16cded5-2bbf-4c94-a782-df8e0c214bbe}, !- Source Object
  11,                                     !- Outlet Port
  {464f1360-1a8a-43ee-9070-1d5b0e3b67af}, !- Target Object
  2;                                      !- Inlet Port

OS:PortList,
  {ad7d09e6-4a29-4e9b-aa60-bccfca5a9993}, !- Handle
  {e16cded5-2bbf-4c94-a782-df8e0c214bbe}; !- HVAC Component

OS:PortList,
  {53f19d20-a58c-49c9-9376-e52f78c8ecac}, !- Handle
  {e16cded5-2bbf-4c94-a782-df8e0c214bbe}; !- HVAC Component

OS:PortList,
  {a174eb2b-c4ba-4114-861d-e6087346d0db}, !- Handle
  {e16cded5-2bbf-4c94-a782-df8e0c214bbe}; !- HVAC Component

OS:Sizing:Zone,
  {bb990fe6-8328-46e7-81ee-6d1f7dff2325}, !- Handle
  {e16cded5-2bbf-4c94-a782-df8e0c214bbe}, !- Zone or ZoneList Name
  SupplyAirTemperature,                   !- Zone Cooling Design Supply Air Temperature Input Method
  14,                                     !- Zone Cooling Design Supply Air Temperature {C}
  11.11,                                  !- Zone Cooling Design Supply Air Temperature Difference {deltaC}
  SupplyAirTemperature,                   !- Zone Heating Design Supply Air Temperature Input Method
  40,                                     !- Zone Heating Design Supply Air Temperature {C}
  11.11,                                  !- Zone Heating Design Supply Air Temperature Difference {deltaC}
  0.0085,                                 !- Zone Cooling Design Supply Air Humidity Ratio {kg-H2O/kg-air}
  0.008,                                  !- Zone Heating Design Supply Air Humidity Ratio {kg-H2O/kg-air}
  ,                                       !- Zone Heating Sizing Factor
  ,                                       !- Zone Cooling Sizing Factor
  DesignDay,                              !- Cooling Design Air Flow Method
  ,                                       !- Cooling Design Air Flow Rate {m3/s}
  ,                                       !- Cooling Minimum Air Flow per Zone Floor Area {m3/s-m2}
  ,                                       !- Cooling Minimum Air Flow {m3/s}
  ,                                       !- Cooling Minimum Air Flow Fraction
  DesignDay,                              !- Heating Design Air Flow Method
  ,                                       !- Heating Design Air Flow Rate {m3/s}
  ,                                       !- Heating Maximum Air Flow per Zone Floor Area {m3/s-m2}
  ,                                       !- Heating Maximum Air Flow {m3/s}
  ,                                       !- Heating Maximum Air Flow Fraction
  No,                                     !- Account for Dedicated Outdoor Air System
  NeutralSupplyAir,                       !- Dedicated Outdoor Air System Control Strategy
  autosize,                               !- Dedicated Outdoor Air Low Setpoint Temperature for Design {C}
  autosize,                               !- Dedicated Outdoor Air High Setpoint Temperature for Design {C}
  Sensible Load Only No Latent Load,      !- Zone Load Sizing Method
  HumidityRatioDifference,                !- Zone Latent Cooling Design Supply Air Humidity Ratio Input Method
  ,                                       !- Zone Dehumidification Design Supply Air Humidity Ratio {kgWater/kgDryAir}
  0.005,                                  !- Zone Cooling Design Supply Air Humidity Ratio Difference {kgWater/kgDryAir}
  HumidityRatioDifference,                !- Zone Latent Heating Design Supply Air Humidity Ratio Input Method
  ,                                       !- Zone Humidification Design Supply Air Humidity Ratio {kgWater/kgDryAir}
  0.005,                                  !- Zone Humidification Design Supply Air Humidity Ratio Difference {kgWater/kgDryAir}
  ,                                       !- Zone Humidistat Dehumidification Set Point Schedule Name
  ,                                       !- Zone Humidistat Humidification Set Point Schedule Name
  ,                                       !- Design Zone Air Distribution Effectiveness in Cooling Mode
  ,                                       !- Design Zone Air Distribution Effectiveness in Heating Mode
  ,                                       !- Design Zone Secondary Recirculation Fraction {dimensionless}
  ,                                       !- Design Minimum Zone Ventilation Efficiency {dimensionless}
  Coincident;                             !- Sizing Option

OS:ZoneHVAC:EquipmentList,
  {ea4c77bf-fcbf-49f3-a78e-9b5f58342e12}, !- Handle
  Zone HVAC Equipment List 2,             !- Name
  {e16cded5-2bbf-4c94-a782-df8e0c214bbe}; !- Thermal Zone

OS:AdditionalProperties,
  {19e2b550-7bde-44bc-a5ac-d5185f8eb894}, !- Handle
  {e16cded5-2bbf-4c94-a782-df8e0c214bbe}, !- Object Name
  ObjectType,                             !- Feature Name 1
  String,                                 !- Feature Data Type 1
  attic - vented;                         !- Feature Value 1

OS:Space,
  {1db78025-b5c0-43e6-a4c7-4cde700a88a2}, !- Handle
  attic - vented 1,                       !- Name
  ,                                       !- Space Type Name
  ,                                       !- Default Construction Set Name
  ,                                       !- Default Schedule Set Name
  ,                                       !- Direction of Relative North {deg}
  ,                                       !- X Origin {m}
  ,                                       !- Y Origin {m}
  ,                                       !- Z Origin {m}
  ,                                       !- Building Story Name
  {e16cded5-2bbf-4c94-a782-df8e0c214bbe}, !- Thermal Zone Name
  ,                                       !- Part of Total Floor Area
  ,                                       !- Design Specification Outdoor Air Object Name
  ,                                       !- Building Unit Name
  356.389957095237;                       !- Volume {m3}

OS:Material,