
OS:Version,
  {a69acc37-9787-4245-87e2-feb915abc97b}, !- Handle
  3.10.0;                                 !- Version Identifier

OS:SimulationControl,
  {cb5d15eb-4ebd-4a97-9491-88c86fdb1acf}, !- Handle
  ,                                       !- Do Zone Sizing Calculation
  ,                                       !- Do System Sizing Calculation
  ,                                       !- Do Plant Sizing Calculation
  No;                                     !- Run Simulation for Sizing Periods

OS:Timestep,
  {b75ad19e-74e9-438e-82a3-782727d637aa}, !- Handle
  1;                                      !- Number of Timesteps per Hour

OS:ShadowCalculation,
  {1447989b-af23-42ba-b283-e52ed339b38c}, !- Handle
  PolygonClipping,                        !- Shading Calculation Method
  ,                                       !- Shading Calculation Update Frequency Method
  20,                                     !- Shading Calculation Update Frequency
  200,                                    !- Maximum Figures in Shadow Overlap Calculations
  ,                                       !- Polygon Clipping Algorithm
  512,                                    !- Pixel Counting Resolution
  ,                                       !- Sky Diffuse Modeling Algorithm
  No,                                     !- Output External Shading Calculation Results
  No,                                     !- Disable Self-Shading Within Shading Zone Groups
  No;                                     !- Disable Self-Shading From Shading Zone Groups to Other Zones

OS:SurfaceConvectionAlgorithm:Outside,
  {4ad350cf-aa38-4b14-91d2-d482adb9c6fa}, !- Handle
  DOE-2;                                  !- Algorithm

OS:SurfaceConvectionAlgorithm:Inside,
  {351c4257-19d6-4705-be6b-2d701d4fbe00}, !- Handle
  TARP;                                   !- Algorithm

OS:ZoneCapacitanceMultiplier:ResearchSpecial,
  {05158ad6-fa83-4e91-81cf-2c4eaf1481c2}, !- Handle
  7,                                      !- Temperature Capacity Multiplier
  15,                                     !- Humidity Capacity Multiplier
  ;                                       !- Carbon Dioxide Capacity Multiplier

OS:ConvergenceLimits,
  {85d14cf3-0868-49cd-b9f7-b5d95c630ea2}, !- Handle
  0;                                      !- Minimum System Timestep {minutes}

OS:RunPeriod,
  {76ead398-4ef6-49bb-a471-a2f6607a2f8c}, !- Handle
  Run Period 1,                           !- Name
  1,                                      !- Begin Month
  1,                                      !- Begin Day of Month
  12,                                     !- End Month
  31,                                     !- End Day of Month
  ,                                       !- Use Weather File Holidays and Special Days
  ,                                       !- Use Weather File Daylight Saving Period
  ,                                       !- Apply Weekend Holiday Rule
  ,                                       !- Use Weather File Rain Indicators
  ,                                       !- Use Weather File Snow Indicators
  ;                                       !- Number of Times Runperiod to be Repeated

OS:PerformancePrecisionTradeoffs,
  {0d0d1817-0cbe-45aa-8d53-ac12fe250b32}, !- Handle
  ,                                       !- Use Coil Direct Solutions
  CarrollMRT;                             !- Zone Radiant Exchange Algorithm

OS:WeatherFile,
  {324583d4-46ee-410d-bda4-7248e121e0df}, !- Handle
  Buffalo Niagara Intl Ap,                !- City
  NY,                                     !- State Province Region
  USA,                                    !- Country
  TMY3,                                   !- Data Source
  725280,                                 !- WMO Number
  42.93,                                  !- Latitude {deg}
  -78.73,                                 !- Longitude {deg}
  -5,                                     !- Time Zone {hr}
  215,                                    !- Elevation {m}
  /Users/nmoore/github/urbanopt-example-geojson-project/example_project/weather/USA_NY_Buffalo-Greater.Buffalo.Intl.AP.725280_TMY3.epw, !- Url
  6B50E0FF,                               !- Checksum
  ,                                       !- Start Date Actual Year
  Sunday;                                 !- Start Day of Week

OS:YearDescription,
  {aca85185-2904-41bb-88a4-2ae50db4df8c}, !- Handle
  2007,                                   !- Calendar Year
  ,                                       !- Day of Week for Start Day
  ;                                       !- Is Leap Year

OS:Site,
  {6609d106-054e-4e2b-884c-e5a73c94af99}, !- Handle
  Buffalo Niagara Intl Ap_NY,             !- Name
  42.93,                                  !- Latitude {deg}
  -78.73,                                 !- Longitude {deg}
  -5,                                     !- Time Zone {hr}
  215,                                    !- Elevation {m}
  Suburbs,                                !- Terrain
  Yes;                                    !- Keep Site Location Information

OS:RunPeriodControl:DaylightSavingTime,
  {a4685df9-3862-4d07-a942-ea8daff93469}, !- Handle
  Mar 12,                                 !- Start Date
  Nov 5;                                  !- End Date

OS:Site:GroundTemperature:Shallow,
  {8121df61-5f02-40e4-a387-2fee47f16d8f}, !- Handle
  4.30207395723828,                       !- January Surface Ground Temperature {C}
  2.29327249652502,                       !- February Surface Ground Temperature {C}
  2.13240047156047,                       !- March Surface Ground Temperature {C}
  3.08567940719286,                       !- April Surface Ground Temperature {C}
  6.91256312497526,                       !- May Surface Ground Temperature {C}
  10.7216195949507,                       !- June Surface Ground Temperature {C}
  14.0238679822574,                       !- July Surface Ground Temperature {C}
  16.1157611184724,                       !- August Surface Ground Temperature {C}
  16.2934789303462,                       !- September Surface Ground Temperature {C}
  14.5920754632847,                       !- October Surface Ground Temperature {C}
  11.374036348653,                        !- November Surface Ground Temperature {C}
  7.68182621661674;                       !- December Surface Ground Temperature {C}

OS:ThermalZone,
  {485608f0-a66e-40f1-9de2-ab1e5b98a2c5}, !- Handle
  conditioned space,                      !- Name
  1,                                      !- Multiplier
  ,                                       !- Ceiling Height {m}
  692.06373070848,                        !- Volume {m3}
  ,                                       !- Floor Area {m2}
  ,                                       !- Zone Inside Convection Algorithm
  ,                                       !- Zone Outside Convection Algorithm
  ,                                       !- Zone Conditioning Equipment List Name
  {ef022fa6-c87d-47a5-848a-88bb9f4b7054}, !- Zone Air Inlet Port List
  {cad286c3-30ab-43de-979a-6dab910e1778}, !- Zone Air Exhaust Port List
  {05af8974-2378-4901-be1b-6b03369f36f1}, !- Zone Air Node Name
  {afdd6d10-6e38-4413-9272-092091ec1e57}, !- Zone Return Air Port List
  ,                                       !- Primary Daylighting Control Name
  ,                                       !- Fraction of Zone Controlled by Primary Daylighting Control
  ,                                       !- Secondary Daylighting Control Name
  ,                                       !- Fraction of Zone Controlled by Secondary Daylighting Control
  ,                                       !- Illuminance Map Name
  ,                                       !- Group Rendering Name
  {bb1cf8e9-643c-4f89-a6ef-ab928da372bc}, !- Thermostat Name
  No;                                     !- Use Ideal Air Loads

OS:Node,
  {3b14e7e9-d3ca-4b99-ad6e-2a55e5b2e736}, !- Handle
  Node 1,                                 !- Name
  {05af8974-2378-4901-be1b-6b03369f36f1}, !- Inlet Port
  ;                                       !- Outlet Port

OS:Connection,
  {05af8974-2378-4901-be1b-6b03369f36f1}, !- Handle
  {485608f0-a66e-40f1-9de2-ab1e5b98a2c5}, !- Source Object
  11,                                     !- Outlet Port
  {3b14e7e9-d3ca-4b99-ad6e-2a55e5b2e736}, !- Target Object
  2;                                      !- Inlet Port

OS:PortList,
  {ef022fa6-c87d-47a5-848a-88bb9f4b7054}, !- Handle
  {485608f0-a66e-40f1-9de2-ab1e5b98a2c5}, !- HVAC Component
  {823ddde6-d57d-4039-83fc-f8fa878d8f24}; !- Port 1

OS:PortList,
  {cad286c3-30ab-43de-979a-6dab910e1778}, !- Handle
  {485608f0-a66e-40f1-9de2-ab1e5b98a2c5}; !- HVAC Component

OS:PortList,
  {afdd6d10-6e38-4413-9272-092091ec1e57}, !- Handle
  {485608f0-a66e-40f1-9de2-ab1e5b98a2c5}, !- HVAC Component
  {e46474c0-dc18-4e11-9739-5cfa24e7150a}; !- Port 1

OS:Sizing:Zone,
  {9008ee87-8d28-4abd-b3dd-e700ce5da73b}, !- Handle
  {485608f0-a66e-40f1-9de2-ab1e5b98a2c5}, !- Zone or ZoneList Name
  SupplyAirTemperature,                   !- Zone Cooling Design Supply Air Temperature Input Method
  14,                                     !- Zone Cooling Design Supply Air Temperature {C}
  11.11,                                  !- Zone Cooling Design Supply Air Temperature Difference {deltaC}
  SupplyAirTemperature,                   !- Zone Heating Design Supply Air Temperature Input Method
  40,                                     !- Zone Heating Design Supply Air Temperature {C}
  11.11,                                  !- Zone Heating Design Supply Air Temperature Difference {deltaC}
  0.0085,                                 !- Zone Cooling Design Supply Air Humidity Ratio {kg-H2O/kg-air}
  0.008,                                  !- Zone Heating Design Supply Air Humidity Ratio {kg-H2O/kg-air}
  ,                                       !- Zone Heating Sizing Factor
  ,                                       !- Zone Cooling Sizing Factor
  DesignDay,                              !- Cooling Design Air Flow Method
  ,                                       !- Cooling Design Air Flow Rate {m3/s}
  ,                                       !- Cooling Minimum Air Flow per Zone Floor Area {m3/s-m2}
  ,                                       !- Cooling Minimum Air Flow {m3/s}
  ,                                       !- Cooling Minimum Air Flow Fraction
  DesignDay,                              !- Heating Design Air Flow Method
  ,                                       !- Heating Design Air Flow Rate {m3/s}
  ,                                       !- Heating Maximum Air Flow per Zone Floor Area {m3/s-m2}
  ,                                       !- Heating Maximum Air Flow {m3/s}
  ,                                       !- Heating Maximum Air Flow Fraction
  No,                                     !- Account for Dedicated Outdoor Air System
  NeutralSupplyAir,                       !- Dedicated Outdoor Air System Control Strategy
  autosize,                               !- Dedicated Outdoor Air Low Setpoint Temperature for Design {C}
  autosize,                               !- Dedicated Outdoor Air High Setpoint Temperature for Design {C}
  Sensible Load Only No Latent Load,      !- Zone Load Sizing Method
  HumidityRatioDifference,                !- Zone Latent Cooling Design Supply Air Humidity Ratio Input Method
  ,                                       !- Zone Dehumidification Design Supply Air Humidity Ratio {kgWater/kgDryAir}
  0.005,                                  !- Zone Cooling Design Supply Air Humidity Ratio Difference {kgWater/kgDryAir}
  HumidityRatioDifference,                !- Zone Latent Heating Design Supply Air Humidity Ratio Input Method
  ,                                       !- Zone Humidification Design Supply Air Humidity Ratio {kgWater/kgDryAir}
  0.005,                                  !- Zone Humidification Design Supply Air Humidity Ratio Difference {kgWater/kgDryAir}
  ,                                       !- Zone Humidistat Dehumidification Set Point Schedule Name
  ,                                       !- Zone Humidistat Humidification Set Point Schedule Name
  ,                                       !- Design Zone Air Distribution Effectiveness in Cooling Mode
  ,                                       !- Design Zone Air Distribution Effectiveness in Heating Mode
  ,                                       !- Design Zone Secondary Recirculation Fraction {dimensionless}
  ,                                       !- Design Minimum Zone Ventilation Efficiency {dimensionless}
  Coincident;                             !- Sizing Option

OS:ZoneHVAC:EquipmentList,
  {66d787d5-542c-4484-bb9b-dc8c01fcb092}, !- Handle
  Zone HVAC Equipment List 1,             !- Name
  {485608f0-a66e-40f1-9de2-ab1e5b98a2c5}, !- Thermal Zone
  ,                                       !- Load Distribution Scheme
  {93dbb6d8-3b60-4fc4-a47c-068c01918a6a}, !- Zone Equipment 1
  1,                                      !- Zone Equipment Cooling Sequence 1
  1,                                      !- Zone Equipment Heating or No-Load Sequence 1
  {f768aac6-af5f-437a-a71c-d76a56d2a742}, !- Zone Equipment Sequential Cooling Fraction Schedule Name 1
  {e75e28ed-81a6-4941-a21d-c277a3ad778b}; !- Zone Equipment Sequential Heating Fraction Schedule Name 1

OS:AdditionalProperties,
  {3ed68b47-95a4-4387-8e4c-6c77a5548f6e}, !- Handle
  {485608f0-a66e-40f1-9de2-ab1e5b98a2c5}, !- Object Name
  ObjectType,                             !- Feature Name 1
  String,                                 !- Feature Data Type 1
  conditioned space;                      !- Feature Value 1

OS:Space,
  {4eb2cc3b-6170-4e18-94f4-c85167f3bdaa}, !- Handle
  conditioned space 1,                    !- Name
  ,                                       !- Space Type Name
  ,                                       !- Default Construction Set Name
  ,                                       !- Default Schedule Set Name
  ,                                       !- Direction of Relative North {deg}
  ,                                       !- X Origin {m}
  ,                                       !- Y Origin {m}
  ,                                       !- Z Origin {m}
  ,                                       !- Building Story Name
  {485608f0-a66e-40f1-9de2-ab1e5b98a2c5}, !- Thermal Zone Name
  ,                                       !- Part of Total Floor Area
  ,                                       !- Design Specification Outdoor Air Object Name
  ,                                       !- Building Unit Name
  692.06373070848;                        !- Volume {m3}

OS:Schedule:Ruleset,
  {3d79f1e7-e454-4c54-9061-e8b5a95edaf9}, !- Handle
  heating setpoint,                       !- Name
  {cb122364-e050-4ad5-9876-0bd7a1125658}, !- Schedule Type Limits Name
  {3b005640-e132-4e3c-ac68-13efa8b6eb30}; !- Default Day Schedule Name

OS:Schedule:Day,
  {3b005640-e132-4e3c-ac68-13efa8b6eb30}, !- Handle
  heating setpoint default day,           !- Name
  {cb122364-e050-4ad5-9876-0bd7a1125658}, !- Schedule Type Limits Name
  ,                                       !- Interpolate to Timestep
  24,                                     !- Hour 1
  0,                                      !- Minute 1
  0;                                      !- Value Until Time 1

OS:Schedule:Rule,
  {50910484-06ab-497c-8440-4c0cd9c7cff3}, !- Handle
  heating setpoint allday rule,           !- Name
  {3d79f1e7-e454-4c54-9061-e8b5a95edaf9}, !- Schedule Ruleset Name
  0,                                      !- Rule Order
  {ce60a33a-bd61-4a55-a753-57cdef0128fc}, !- Day Schedule Name
  Yes,                                    !- Apply Sunday
  Yes,                                    !- Apply Monday
  Yes,                                    !- Apply Tuesday
  Yes,                                    !- Apply Wednesday
  Yes,                                    !- Apply Thursday
  Yes,                                    !- Apply Friday
  Yes,                                    !- Apply Saturday
  DateRange,                              !- Date Specification Type
  1,                                      !- Start Month
  1,                                      !- Start Day
  12,                                     !- End Month
  31;                                     !- End Day

OS:Schedule:Day,
  {ce60a33a-bd61-4a55-a753-57cdef0128fc}, !- Handle
  heating setpoint day,                   !- Name
  {cb122364-e050-4ad5-9876-0bd7a1125658}, !- Schedule Type Limits Name
  ,                                       !- Interpolate to Timestep
  24,                                     !- Hour 1
  0,                                      !- Minute 1
  20;                                     !- Value Until Time 1

OS:Schedule:Ruleset,
  {f2810771-590a-49ea-8fb6-ad4a95e80b03}, !- Handle
  cooling setpoint,                       !- Name
  {cb122364-e050-4ad5-9876-0bd7a1125658}, !- Schedule Type Limits Name
  {a9a1a7ed-01e2-4e52-84a9-60e6e15cdd13}; !- Default Day Schedule Name

OS:Schedule:Day,
  {a9a1a7ed-01e2-4e52-84a9-60e6e15cdd13}, !- Handle
  cooling setpoint default day,           !- Name
  {cb122364-e050-4ad5-9876-0bd7a1125658}, !- Schedule Type Limits Name
  ,                                       !- Interpolate to Timestep
  24,                                     !- Hour 1
  0,                                      !- Minute 1
  0;                                      !- Value Until Time 1

OS:Schedule:Rule,
  {7554b0c3-c147-41c8-8fa8-5446e7e7e560}, !- Handle
  cooling setpoint allday rule,           !- Name
  {f2810771-590a-49ea-8fb6-ad4a95e80b03}, !- Schedule Ruleset Name
  0,                                      !- Rule Order
  {a80f5fbd-913e-432f-8b71-6f97b66d7469}, !- Day Schedule Name
  Yes,                                    !- Apply Sunday
  Yes,                                    !- Apply Monday
  Yes,                                    !- Apply Tuesday
  Yes,                                    !- Apply Wednesday
  Yes,                                    !- Apply Thursday
  Yes,                                    !- Apply Friday
  Yes,                                    !- Apply Saturday
  DateRange,                              !- Date Specification Type
  1,                                      !- Start Month
  1,                                      !- Start Day
  12,                                     !- End Month
  31;                                     !- End Day

OS:Schedule:Day,
  {a80f5fbd-913e-432f-8b71-6f97b66d7469}, !- Handle
  cooling setpoint day,                   !- Name
  {cb122364-e050-4ad5-9876-0bd7a1125658}, !- Schedule Type Limits Name
  ,                                       !- Interpolate to Timestep
  24,                                     !- Hour 1
  0,                                      !- Minute 1
  25.5555555555556;                       !- Value Until Time 1

OS:ThermostatSetpoint:DualSetpoint,
  {bb1cf8e9-643c-4f89-a6ef-ab928da372bc}, !- Handle
  conditioned space temperature setpoint, !- Name
  {3d79f1e7-e454-4c54-9061-e8b5a95edaf9}, !- Heating Setpoint Temperature Schedule Name
  {f2810771-590a-49ea-8fb6-ad4a95e80b03}, !- Cooling Setpoint Temperature Schedule Name
  0;                                      !- Temperature Difference Between Cutout And Setpoint {deltaC}

OS:ScheduleTypeLimits,
  {cb122364-e050-4ad5-9876-0bd7a1125658}, !- Handle
  Temperature,                            !- Name
  ,                                       !- Lower Limit Value
  ,                                       !- Upper Limit Value
  Continuous,                             !- Numeric Type
  Temperature;                            !- Unit Type

OS:Surface,
  {27c25f44-f496-4a12-a0b7-8e676e161353}, !- Handle
  Roof1,                                  !- Name
  RoofCeiling,                            !- Surface Type
  {49a75964-8fb9-485d-a753-0a3071647e5e}, !- Construction Name
  {5209a395-53ec-4587-bcc2-e6e97d2c5bda}, !- Space Name
  Outdoors,                               !- Outside Boundary Condition
  ,                                       !- Outside Boundary Condition Object
  SunExposed,                             !- Sun Exposure
  WindExposed,                            !- Wind Exposure
  ,                                       !- View Factor to Ground
  ,                                       !- Number of Vertices
  -26.9347048849634, 58.0557891618865, 2.4384, !- X,Y,Z Vertex 1 {m}
  -26.9347048849634, 46.7895631136661, 8.0715130241102, !- X,Y,Z Vertex 2 {m}
  -14.3386812381136, 46.7895631136661, 8.0715130241102, !- X,Y,Z Vertex 3 {m}
  -14.3386812381136, 58.0557891618865, 2.4384; !- X,Y,Z Vertex 4 {m}

OS:AdditionalProperties,
  {e86a5885-2b83-4f9d-b9da-f69dcb7e1075}, !- Handle
  {27c25f44-f496-4a12-a0b7-8e676e161353}, !- Object Name
  Length,                                 !- Feature Name 1
  Double,                                 !- Feature Data Type 1
  41.325536899113608,                     !- Feature Value 1
  Width,                                  !- Feature Name 2
  Double,                                 !- Feature Data Type 2
  41.325536899113601,                     !- Feature Value 2
  Azimuth,                                !- Feature Name 3
  Integer,                                !- Feature Data Type 3
  0,                                      !- Feature Value 3
  Tilt,                                   !- Feature Name 4
  Double,                                 !- Feature Data Type 4
  0.5,                                    !- Feature Value 4
  SurfaceType,                            !- Feature Name 5
  String,                                 !- Feature Data Type 5
  Roof;                                   !- Feature Value 5

OS:ThermalZone,
  {f7e6d262-b5f8-4e07-a991-911d80694866}, !- Handle
  attic - vented,                         !- Name
  1,                                      !- Multiplier
  ,                                       !- Ceiling Height {m}
  356.390921899745,                       !- Volume {m3}
  ,                                       !- Floor Area {m2}
  ,                                       !- Zone Inside Convection Algorithm
  ,                                       !- Zone Outside Convection Algorithm
  ,                                       !- Zone Conditioning Equipment List Name
  {6f0ae223-0b23-4b72-a9d5-d50b8c5f29fb}, !- Zone Air Inlet Port List
  {d8036fdf-f122-4e42-b21a-0f8ef1155cd3}, !- Zone Air Exhaust Port List
  {4d7e1840-496a-4e47-aa82-934c6dc32e87}, !- Zone Air Node Name
  {55ea8ca7-a4c4-4966-8351-8000133b2d94}, !- Zone Return Air Port List
  ,                                       !- Primary Daylighting Control Name
  ,                                       !- Fraction of Zone Controlled by Primary Daylighting Control
  ,                                       !- Secondary Daylighting Control Name
  ,                                       !- Fraction of Zone Controlled by Secondary Daylighting Control
  ,                                       !- Illuminance Map Name
  ,                                       !- Group Rendering Name
  ,                                       !- Thermostat Name
  No;                                     !- Use Ideal Air Loads

OS:Node,
  {6db27a27-4be4-4770-9a77-bbac684ac720}, !- Handle
  Node 2,                                 !- Name
  {4d7e1840-496a-4e47-aa82-934c6dc32e87}, !- Inlet Port
  ;                                       !- Outlet Port

OS:Connection,
  {4d7e1840-496a-4e47-aa82-934c6dc32e87}, !- Handle
  {f7e6d262-b5f8-4e07-a991-911d80694866}, !- Source Object
  11,                                     !- Outlet Port
  {6db27a27-4be4-4770-9a77-bbac684ac720}, !- Target Object
  2;                                      !- Inlet Port

OS:PortList,
  {6f0ae223-0b23-4b72-a9d5-d50b8c5f29fb}, !- Handle
  {f7e6d262-b5f8-4e07-a991-911d80694866}; !- HVAC Component

OS:PortList,
  {d8036fdf-f122-4e42-b21a-0f8ef1155cd3}, !- Handle
  {f7e6d262-b5f8-4e07-a991-911d80694866}; !- HVAC Component

OS:PortList,
  {55ea8ca7-a4c4-4966-8351-8000133b2d94}, !- Handle
  {f7e6d262-b5f8-4e07-a991-911d80694866}; !- HVAC Component

OS:Sizing:Zone,
  {498fc2c5-bfd2-4914-840e-13480190e361}, !- Handle
  {f7e6d262-b5f8-4e07-a991-911d80694866}, !- Zone or ZoneList Name
  SupplyAirTemperature,                   !- Zone Cooling Design Supply Air Temperature Input Method
  14,                                     !- Zone Cooling Design Supply Air Temperature {C}
  11.11,                                  !- Zone Cooling Design Supply Air Temperature Difference {deltaC}
  SupplyAirTemperature,                   !- Zone Heating Design Supply Air Temperature Input Method
  40,                                     !- Zone Heating Design Supply Air Temperature {C}
  11.11,                                  !- Zone Heating Design Supply Air Temperature Difference {deltaC}
  0.0085,                                 !- Zone Cooling Design Supply Air Humidity Ratio {kg-H2O/kg-air}
  0.008,                                  !- Zone Heating Design Supply Air Humidity Ratio {kg-H2O/kg-air}
  ,                                       !- Zone Heating Sizing Factor
  ,                                       !- Zone Cooling Sizing Factor
  DesignDay,                              !- Cooling Design Air Flow Method
  ,                                       !- Cooling Design Air Flow Rate {m3/s}
  ,                                       !- Cooling Minimum Air Flow per Zone Floor Area {m3/s-m2}
  ,                                       !- Cooling Minimum Air Flow {m3/s}
  ,                                       !- Cooling Minimum Air Flow Fraction
  DesignDay,                              !- Heating Design Air Flow Method
  ,                                       !- Heating Design Air Flow Rate {m3/s}
  ,                                       !- Heating Maximum Air Flow per Zone Floor Area {m3/s-m2}
  ,                                       !- Heating Maximum Air Flow {m3/s}
  ,                                       !- Heating Maximum Air Flow Fraction
  No,                                     !- Account for Dedicated Outdoor Air System
  NeutralSupplyAir,                       !- Dedicated Outdoor Air System Control Strategy
  autosize,                               !- Dedicated Outdoor Air Low Setpoint Temperature for Design {C}
  autosize,                               !- Dedicated Outdoor Air High Setpoint Temperature for Design {C}
  Sensible Load Only No Latent Load,      !- Zone Load Sizing Method
  HumidityRatioDifference,                !- Zone Latent Cooling Design Supply Air Humidity Ratio Input Method
  ,                                       !- Zone Dehumidification Design Supply Air Humidity Ratio {kgWater/kgDryAir}
  0.005,                                  !- Zone Cooling Design Supply Air Humidity Ratio Difference {kgWater/kgDryAir}
  HumidityRatioDifference,                !- Zone Latent Heating Design Supply Air Humidity Ratio Input Method
  ,                                       !- Zone Humidification Design Supply Air Humidity Ratio {kgWater/kgDryAir}
  0.005,                                  !- Zone Humidification Design Supply Air Humidity Ratio Difference {kgWater/kgDryAir}
  ,                                       !- Zone Humidistat Dehumidification Set Point Schedule Name
  ,                                       !- Zone Humidistat Humidification Set Point Schedule Name
  ,                                       !- Design Zone Air Distribution Effectiveness in Cooling Mode
  ,                                       !- Design Zone Air Distribution Effectiveness in Heating Mode
  ,                                       !- Design Zone Secondary Recirculation Fraction {dimensionless}
  ,                                       !- Design Minimum Zone Ventilation Efficiency {dimensionless}
  Coincident;                             !- Sizing Option

OS:ZoneHVAC:EquipmentList,
  {cac0d95d-d29e-4fcb-a97a-4b10affe01e3}, !- Handle
  Zone HVAC Equipment List 2,             !- Name
  {f7e6d262-b5f8-4e07-a991-911d80694866}; !- Thermal Zone

OS:AdditionalProperties,
  {785db0a7-6668-442f-9e13-2d5893addd83}, !- Handle
  {f7e6d262-b5f8-4e07-a991-911d80694866}, !- Object Name
  ObjectType,                             !- Feature Name 1
  String,                                 !- Feature Data Type 1
  attic - vented;                         !- Feature Value 1

OS:Space,
  {5209a395-53ec-4587-bcc2-e6e97d2c5bda}, !- Handle
  attic - vented 1,                       !- Name
  ,                                       !- Space Type Name
  ,                                       !- Default Construction Set Name
  ,                                       !- Default Schedule Set Name
  ,                                       !- Direction of Relative North {deg}
  ,                                       !- X Origin {m}
  ,                                       !- Y Origin {m}
  ,                                       !- Z Origin {m}
  ,                                       !- Building Story Name
  {f7e6d262-b5f8-4e07-a991-911d80694866}, !- Thermal Zone Name
  ,                                       !- Part of Total Floor Area
  ,                                       !- Design Specification Outdoor Air Object Name
  ,                                       !- Building Unit Name
  356.390921899745;                       !- Volume {m3}

OS:Material,
  {9f95bb48-f296-4625-8430-d3beec7b7e71}, !- Handle
  asphalt or fiberglass shingles,         !- Name
  Rough,                                  !- Roughness
  0.00635,                                !- Thickness {m}
  0.162714,                               !- Conductivity {W/m-K}
  1121.4,                                 !- Density {kg/m3}
  1465.45,                                !- Specific Heat {J/kg-K}
  0.9,                                    !- Thermal Absorptance
  0.85,                                   !- Solar Absorptance