
OS:Version,
  {e09b6bcb-0456-422c-af9a-1da8b678ec43}, !- Handle
  3.9.0;                                  !- Version Identifier

OS:SimulationControl,
  {60d05e44-d1c7-4767-bca7-2fd0bba5a5c0}, !- Handle
  ,                                       !- Do Zone Sizing Calculation
  ,                                       !- Do System Sizing Calculation
  ,                                       !- Do Plant Sizing Calculation
  No;                                     !- Run Simulation for Sizing Periods

OS:Timestep,
  {77f4c6e4-7acf-4cef-97e1-74d5a9063735}, !- Handle
  1;                                      !- Number of Timesteps per Hour

OS:ShadowCalculation,
  {33b4e828-819f-44d6-9b72-94708fe8c57e}, !- Handle
  PolygonClipping,                        !- Shading Calculation Method
  ,                                       !- Shading Calculation Update Frequency Method
  20,                                     !- Shading Calculation Update Frequency
  200,                                    !- Maximum Figures in Shadow Overlap Calculations
  ,                                       !- Polygon Clipping Algorithm
  512,                                    !- Pixel Counting Resolution
  ,                                       !- Sky Diffuse Modeling Algorithm
  No,                                     !- Output External Shading Calculation Results
  No,                                     !- Disable Self-Shading Within Shading Zone Groups
  No;                                     !- Disable Self-Shading From Shading Zone Groups to Other Zones

OS:SurfaceConvectionAlgorithm:Outside,
  {a56806af-8ed7-4922-b7bc-e511f8d9bc41}, !- Handle
  DOE-2;                                  !- Algorithm

OS:SurfaceConvectionAlgorithm:Inside,
  {deb0572a-fa0c-4c42-9864-03cf8a4a16e8}, !- Handle
  TARP;                                   !- Algorithm

OS:ZoneCapacitanceMultiplier:ResearchSpecial,
  {8f41d68d-e981-4fb7-b3f6-1df0a7b0905c}, !- Handle
  7,                                      !- Temperature Capacity Multiplier
  15,                                     !- Humidity Capacity Multiplier
  ;                                       !- Carbon Dioxide Capacity Multiplier

OS:ConvergenceLimits,
  {406b0b6f-d7b3-4e26-a536-05f986b20626}, !- Handle
  0;                                      !- Minimum System Timestep {minutes}

OS:RunPeriod,
  {ef45ae6c-cfd9-4f09-84e5-8010c61544f2}, !- Handle
  Run Period 1,                           !- Name
  1,                                      !- Begin Month
  1,                                      !- Begin Day of Month
  12,                                     !- End Month
  31,                                     !- End Day of Month
  ,                                       !- Use Weather File Holidays and Special Days
  ,                                       !- Use Weather File Daylight Saving Period
  ,                                       !- Apply Weekend Holiday Rule
  ,                                       !- Use Weather File Rain Indicators
  ,                                       !- Use Weather File Snow Indicators
  ;                                       !- Number of Times Runperiod to be Repeated

OS:PerformancePrecisionTradeoffs,
  {36be623d-1ef7-4864-a6c2-24ddd5ab9ad2}, !- Handle
  ,                                       !- Use Coil Direct Solutions
  CarrollMRT;                             !- Zone Radiant Exchange Algorithm

OS:WeatherFile,
  {4fe68ae5-593b-4c1f-b14a-198296ed8210}, !- Handle
  Buffalo Niagara Intl Ap,                !- City
  NY,                                     !- State Province Region
  USA,                                    !- Country
  TMY3,                                   !- Data Source
  725280,                                 !- WMO Number
  42.93,                                  !- Latitude {deg}
  -78.73,                                 !- Longitude {deg}
  -5,                                     !- Time Zone {hr}
  215,                                    !- Elevation {m}
  /Users/nmoore/github/urbanopt-example-geojson-project/example_project/weather/USA_NY_Buffalo-Greater.Buffalo.Intl.AP.725280_TMY3.epw, !- Url
  6B50E0FF,                               !- Checksum
  ,                                       !- Start Date Actual Year
  Sunday;                                 !- Start Day of Week

OS:YearDescription,
  {585a1772-61d5-43e8-aeb3-0c4fa9e353fd}, !- Handle
  2007,                                   !- Calendar Year
  ,                                       !- Day of Week for Start Day
  ;                                       !- Is Leap Year

OS:Site,
  {31091833-4b04-43a0-a795-7c07a2d72239}, !- Handle
  Buffalo Niagara Intl Ap_NY,             !- Name
  42.93,                                  !- Latitude {deg}
  -78.73,                                 !- Longitude {deg}
  -5,                                     !- Time Zone {hr}
  215,                                    !- Elevation {m}
  Suburbs,                                !- Terrain
  Yes;                                    !- Keep Site Location Information

OS:RunPeriodControl:DaylightSavingTime,
  {14fbd362-eba0-4744-9ab2-c0da63d5c00b}, !- Handle
  Mar 12,                                 !- Start Date
  Nov 5;                                  !- End Date

OS:Site:GroundTemperature:Shallow,
  {6f74018c-c8a2-473c-8d28-1754bd596ca9}, !- Handle
  4.30207395723828,                       !- January Surface Ground Temperature {C}
  2.29327249652502,                       !- February Surface Ground Temperature {C}
  2.13240047156047,                       !- March Surface Ground Temperature {C}
  3.08567940719286,                       !- April Surface Ground Temperature {C}
  6.91256312497526,                       !- May Surface Ground Temperature {C}
  10.7216195949507,                       !- June Surface Ground Temperature {C}
  14.0238679822574,                       !- July Surface Ground Temperature {C}
  16.1157611184724,                       !- August Surface Ground Temperature {C}
  16.2934789303462,                       !- September Surface Ground Temperature {C}
  14.5920754632847,                       !- October Surface Ground Temperature {C}
  11.374036348653,                        !- November Surface Ground Temperature {C}
  7.68182621661674;                       !- December Surface Ground Temperature {C}

OS:ThermalZone,
  {60d8975f-a56f-4fd1-aebf-9c28e90d7424}, !- Handle
  conditioned space,                      !- Name
  1,                                      !- Multiplier
  ,                                       !- Ceiling Height {m}
  692.06373070848,                        !- Volume {m3}
  ,                                       !- Floor Area {m2}
  ,                                       !- Zone Inside Convection Algorithm
  ,                                       !- Zone Outside Convection Algorithm
  ,                                       !- Zone Conditioning Equipment List Name
  {20713d83-0d02-4b4d-9e74-0ebd87c19fa0}, !- Zone Air Inlet Port List
  {35e7cb52-31ce-41cc-860a-b500240fb1dc}, !- Zone Air Exhaust Port List
  {ad657956-674e-4d22-9b8b-ad70f4f21b79}, !- Zone Air Node Name
  {0a0622ff-81c8-46ec-939c-35a684dda7ff}, !- Zone Return Air Port List
  ,                                       !- Primary Daylighting Control Name
  ,                                       !- Fraction of Zone Controlled by Primary Daylighting Control
  ,                                       !- Secondary Daylighting Control Name
  ,                                       !- Fraction of Zone Controlled by Secondary Daylighting Control
  ,                                       !- Illuminance Map Name
  ,                                       !- Group Rendering Name
  {0a5c4170-015c-4b01-bad8-1f73e7a85103}, !- Thermostat Name
  No;                                     !- Use Ideal Air Loads

OS:Node,
  {8a2ee9bf-4981-42c7-8f1d-0afc1580cced}, !- Handle
  Node 1,                                 !- Name
  {ad657956-674e-4d22-9b8b-ad70f4f21b79}, !- Inlet Port
  ;                                       !- Outlet Port

OS:Connection,
  {ad657956-674e-4d22-9b8b-ad70f4f21b79}, !- Handle
  {60d8975f-a56f-4fd1-aebf-9c28e90d7424}, !- Source Object
  11,                                     !- Outlet Port
  {8a2ee9bf-4981-42c7-8f1d-0afc1580cced}, !- Target Object
  2;                                      !- Inlet Port

OS:PortList,
  {20713d83-0d02-4b4d-9e74-0ebd87c19fa0}, !- Handle
  {60d8975f-a56f-4fd1-aebf-9c28e90d7424}, !- HVAC Component
  {61332f36-e3ac-4276-bf81-3cbbee60ec6b}; !- Port 1

OS:PortList,
  {35e7cb52-31ce-41cc-860a-b500240fb1dc}, !- Handle
  {60d8975f-a56f-4fd1-aebf-9c28e90d7424}; !- HVAC Component

OS:PortList,
  {0a0622ff-81c8-46ec-939c-35a684dda7ff}, !- Handle
  {60d8975f-a56f-4fd1-aebf-9c28e90d7424}, !- HVAC Component
  {a54c7484-bd2c-4429-b3dd-4310d2be9b06}; !- Port 1

OS:Sizing:Zone,
  {fd4f41ee-e73d-4829-b8ee-acb2090ff806}, !- Handle
  {60d8975f-a56f-4fd1-aebf-9c28e90d7424}, !- Zone or ZoneList Name
  SupplyAirTemperature,                   !- Zone Cooling Design Supply Air Temperature Input Method
  14,                                     !- Zone Cooling Design Supply Air Temperature {C}
  11.11,                                  !- Zone Cooling Design Supply Air Temperature Difference {deltaC}
  SupplyAirTemperature,                   !- Zone Heating Design Supply Air Temperature Input Method
  40,                                     !- Zone Heating Design Supply Air Temperature {C}
  11.11,                                  !- Zone Heating Design Supply Air Temperature Difference {deltaC}
  0.0085,                                 !- Zone Cooling Design Supply Air Humidity Ratio {kg-H2O/kg-air}
  0.008,                                  !- Zone Heating Design Supply Air Humidity Ratio {kg-H2O/kg-air}
  ,                                       !- Zone Heating Sizing Factor
  ,                                       !- Zone Cooling Sizing Factor
  DesignDay,                              !- Cooling Design Air Flow Method
  ,                                       !- Cooling Design Air Flow Rate {m3/s}
  ,                                       !- Cooling Minimum Air Flow per Zone Floor Area {m3/s-m2}
  ,                                       !- Cooling Minimum Air Flow {m3/s}
  ,                                       !- Cooling Minimum Air Flow Fraction
  DesignDay,                              !- Heating Design Air Flow Method
  ,                                       !- Heating Design Air Flow Rate {m3/s}
  ,                                       !- Heating Maximum Air Flow per Zone Floor Area {m3/s-m2}
  ,                                       !- Heating Maximum Air Flow {m3/s}
  ,                                       !- Heating Maximum Air Flow Fraction
  No,                                     !- Account for Dedicated Outdoor Air System
  NeutralSupplyAir,                       !- Dedicated Outdoor Air System Control Strategy
  autosize,                               !- Dedicated Outdoor Air Low Setpoint Temperature for Design {C}
  autosize,                               !- Dedicated Outdoor Air High Setpoint Temperature for Design {C}
  Sensible Load Only No Latent Load,      !- Zone Load Sizing Method
  HumidityRatioDifference,                !- Zone Latent Cooling Design Supply Air Humidity Ratio Input Method
  ,                                       !- Zone Dehumidification Design Supply Air Humidity Ratio {kgWater/kgDryAir}
  0.005,                                  !- Zone Cooling Design Supply Air Humidity Ratio Difference {kgWater/kgDryAir}
  HumidityRatioDifference,                !- Zone Latent Heating Design Supply Air Humidity Ratio Input Method
  ,                                       !- Zone Humidification Design Supply Air Humidity Ratio {kgWater/kgDryAir}
  0.005,                                  !- Zone Humidification Design Supply Air Humidity Ratio Difference {kgWater/kgDryAir}
  ,                                       !- Zone Humidistat Dehumidification Set Point Schedule Name
  ,                                       !- Zone Humidistat Humidification Set Point Schedule Name
  ,                                       !- Design Zone Air Distribution Effectiveness in Cooling Mode
  ,                                       !- Design Zone Air Distribution Effectiveness in Heating Mode
  ,                                       !- Design Zone Secondary Recirculation Fraction {dimensionless}
  ,                                       !- Design Minimum Zone Ventilation Efficiency {dimensionless}
  Coincident;                             !- Sizing Option

OS:ZoneHVAC:EquipmentList,
  {0235f061-e957-4a1a-9e10-0b4950f8b2e9}, !- Handle
  Zone HVAC Equipment List 1,             !- Name
  {60d8975f-a56f-4fd1-aebf-9c28e90d7424}, !- Thermal Zone
  ,                                       !- Load Distribution Scheme
  {7a6aaf85-c386-4be8-ac96-012fc28af1ab}, !- Zone Equipment 1
  1,                                      !- Zone Equipment Cooling Sequence 1
  1,                                      !- Zone Equipment Heating or No-Load Sequence 1
  {4f75d807-c210-4d1e-abb6-6e1a11f07c9c}, !- Zone Equipment Sequential Cooling Fraction Schedule Name 1
  {b7cf39de-cce7-48ab-ad99-4d19ba401ef1}; !- Zone Equipment Sequential Heating Fraction Schedule Name 1

OS:AdditionalProperties,
  {8debbb92-cc4e-4e0f-8129-b7cea020ca6a}, !- Handle
  {60d8975f-a56f-4fd1-aebf-9c28e90d7424}, !- Object Name
  ObjectType,                             !- Feature Name 1
  String,                                 !- Feature Data Type 1
  conditioned space;                      !- Feature Value 1

OS:Space,
  {f02123d0-4dda-4265-918c-11c0181c6c31}, !- Handle
  conditioned space 1,                    !- Name
  ,                                       !- Space Type Name
  ,                                       !- Default Construction Set Name
  ,                                       !- Default Schedule Set Name
  ,                                       !- Direction of Relative North {deg}
  ,                                       !- X Origin {m}
  ,                                       !- Y Origin {m}
  ,                                       !- Z Origin {m}
  ,                                       !- Building Story Name
  {60d8975f-a56f-4fd1-aebf-9c28e90d7424}, !- Thermal Zone Name
  ,                                       !- Part of Total Floor Area
  ,                                       !- Design Specification Outdoor Air Object Name
  ,                                       !- Building Unit Name
  692.06373070848;                        !- Volume {m3}

OS:Schedule:Ruleset,
  {b4b97a2e-e5f9-4b5c-b19d-9dc94d09ab2d}, !- Handle
  heating setpoint,                       !- Name
  {96e86803-62ee-4967-ab98-0f2e7b52947e}, !- Schedule Type Limits Name
  {e23caa10-1826-468e-9481-d5244fab2875}; !- Default Day Schedule Name

OS:Schedule:Day,
  {e23caa10-1826-468e-9481-d5244fab2875}, !- Handle
  heating setpoint default day,           !- Name
  {96e86803-62ee-4967-ab98-0f2e7b52947e}, !- Schedule Type Limits Name
  ,                                       !- Interpolate to Timestep
  24,                                     !- Hour 1
  0,                                      !- Minute 1
  0;                                      !- Value Until Time 1

OS:Schedule:Rule,
  {23fd853c-3b61-447a-9929-300a077f5dc6}, !- Handle
  heating setpoint allday rule,           !- Name
  {b4b97a2e-e5f9-4b5c-b19d-9dc94d09ab2d}, !- Schedule Ruleset Name
  0,                                      !- Rule Order
  {928bc4d0-631d-4926-9d0f-69110d90b90c}, !- Day Schedule Name
  Yes,                                    !- Apply Sunday
  Yes,                                    !- Apply Monday
  Yes,                                    !- Apply Tuesday
  Yes,                                    !- Apply Wednesday
  Yes,                                    !- Apply Thursday
  Yes,                                    !- Apply Friday
  Yes,                                    !- Apply Saturday
  DateRange,                              !- Date Specification Type
  1,                                      !- Start Month
  1,                                      !- Start Day
  12,                                     !- End Month
  31;                                     !- End Day

OS:Schedule:Day,
  {928bc4d0-631d-4926-9d0f-69110d90b90c}, !- Handle
  heating setpoint day,                   !- Name
  {96e86803-62ee-4967-ab98-0f2e7b52947e}, !- Schedule Type Limits Name
  ,                                       !- Interpolate to Timestep
  24,                                     !- Hour 1
  0,                                      !- Minute 1
  20;                                     !- Value Until Time 1

OS:Schedule:Ruleset,
  {509dae9a-c72b-4ab5-b2c8-4ce7d45923dd}, !- Handle
  cooling setpoint,                       !- Name
  {96e86803-62ee-4967-ab98-0f2e7b52947e}, !- Schedule Type Limits Name
  {76523c87-4f7c-431b-8d4d-2747852369fb}; !- Default Day Schedule Name

OS:Schedule:Day,
  {76523c87-4f7c-431b-8d4d-2747852369fb}, !- Handle
  cooling setpoint default day,           !- Name
  {96e86803-62ee-4967-ab98-0f2e7b52947e}, !- Schedule Type Limits Name
  ,                                       !- Interpolate to Timestep
  24,                                     !- Hour 1
  0,                                      !- Minute 1
  0;                                      !- Value Until Time 1

OS:Schedule:Rule,
  {5954c1da-7ae5-48a9-bb4a-358911e50077}, !- Handle
  cooling setpoint allday rule,           !- Name
  {509dae9a-c72b-4ab5-b2c8-4ce7d45923dd}, !- Schedule Ruleset Name
  0,                                      !- Rule Order
  {00c0c50e-7065-4ff9-b48a-fbb19bb582fa}, !- Day Schedule Name
  Yes,                                    !- Apply Sunday
  Yes,                                    !- Apply Monday
  Yes,                                    !- Apply Tuesday
  Yes,                                    !- Apply Wednesday
  Yes,                                    !- Apply Thursday
  Yes,                                    !- Apply Friday
  Yes,                                    !- Apply Saturday
  DateRange,                              !- Date Specification Type
  1,                                      !- Start Month
  1,                                      !- Start Day
  12,                                     !- End Month
  31;                                     !- End Day

OS:Schedule:Day,
  {00c0c50e-7065-4ff9-b48a-fbb19bb582fa}, !- Handle
  cooling setpoint day,                   !- Name
  {96e86803-62ee-4967-ab98-0f2e7b52947e}, !- Schedule Type Limits Name
  ,                                       !- Interpolate to Timestep
  24,                                     !- Hour 1
  0,                                      !- Minute 1
  25.5555555555556;                       !- Value Until Time 1

OS:ThermostatSetpoint:DualSetpoint,
  {0a5c4170-015c-4b01-bad8-1f73e7a85103}, !- Handle
  conditioned space temperature setpoint, !- Name
  {b4b97a2e-e5f9-4b5c-b19d-9dc94d09ab2d}, !- Heating Setpoint Temperature Schedule Name
  {509dae9a-c72b-4ab5-b2c8-4ce7d45923dd}, !- Cooling Setpoint Temperature Schedule Name
  0;                                      !- Temperature Difference Between Cutout And Setpoint {deltaC}

OS:ScheduleTypeLimits,
  {96e86803-62ee-4967-ab98-0f2e7b52947e}, !- Handle
  Temperature,                            !- Name
  ,                                       !- Lower Limit Value
  ,                                       !- Upper Limit Value
  Continuous,                             !- Numeric Type
  Temperature;                            !- Unit Type

OS:Surface,
  {3e725783-a999-4887-af68-d666688b7eb5}, !- Handle
  Roof1,                                  !- Name
  RoofCeiling,                            !- Surface Type
  {89484af7-bbec-4377-a25b-2ebf1b92c389}, !- Construction Name
  {21be5347-5bea-49b4-a113-f1eac1269b37}, !- Space Name
  Outdoors,                               !- Outside Boundary Condition
  ,                                       !- Outside Boundary Condition Object
  SunExposed,                             !- Sun Exposure
  WindExposed,                            !- Wind Exposure
  ,                                       !- View Factor to Ground
  ,                                       !- Number of Vertices
  -26.9347048849634, 58.0557891618865, 2.4384, !- X,Y,Z Vertex 1 {m}
  -26.9347048849634, 46.7895631136661, 8.0715130241102, !- X,Y,Z Vertex 2 {m}
  -14.3386812381136, 46.7895631136661, 8.0715130241102, !- X,Y,Z Vertex 3 {m}
  -14.3386812381136, 58.0557891618865, 2.4384; !- X,Y,Z Vertex 4 {m}

OS:AdditionalProperties,
  {e75b11f9-4603-4f21-b206-501a94880a23}, !- Handle
  {3e725783-a999-4887-af68-d666688b7eb5}, !- Object Name
  Length,                                 !- Feature Name 1
  Double,                                 !- Feature Data Type 1
  41.325536899113608,                     !- Feature Value 1
  Width,                                  !- Feature Name 2
  Double,                                 !- Feature Data Type 2
  41.325536899113601,                     !- Feature Value 2
  Azimuth,                                !- Feature Name 3
  Integer,                                !- Feature Data Type 3
  0,                                      !- Feature Value 3
  Tilt,                                   !- Feature Name 4
  Double,                                 !- Feature Data Type 4
  0.5,                                    !- Feature Value 4
  SurfaceType,                            !- Feature Name 5
  String,                                 !- Feature Data Type 5
  Roof;                                   !- Feature Value 5

OS:ThermalZone,
  {49465f7d-bac3-401d-89ae-60a3dc1ab592}, !- Handle
  attic - vented,                         !- Name
  1,                                      !- Multiplier
  ,                                       !- Ceiling Height {m}
  356.389957095237,                       !- Volume {m3}
  ,                                       !- Floor Area {m2}
  ,                                       !- Zone Inside Convection Algorithm
  ,                                       !- Zone Outside Convection Algorithm
  ,                                       !- Zone Conditioning Equipment List Name
  {eca92d66-37a9-4281-aa9a-2582ac8f9282}, !- Zone Air Inlet Port List
  {c1106ac8-fc1a-4feb-82ae-8bd2da42d220}, !- Zone Air Exhaust Port List
  {dceb9afc-8def-489f-b7c8-f579624f6223}, !- Zone Air Node Name
  {18d52fba-cedc-4ada-b562-8757e2bff1c1}, !- Zone Return Air Port List
  ,                                       !- Primary Daylighting Control Name
  ,                                       !- Fraction of Zone Controlled by Primary Daylighting Control
  ,                                       !- Secondary Daylighting Control Name
  ,                                       !- Fraction of Zone Controlled by Secondary Daylighting Control
  ,                                       !- Illuminance Map Name
  ,                                       !- Group Rendering Name
  ,                                       !- Thermostat Name
  No;                                     !- Use Ideal Air Loads

OS:Node,
  {2c7b8b99-69b7-4984-bccc-a890c7975fd9}, !- Handle
  Node 2,                                 !- Name
  {dceb9afc-8def-489f-b7c8-f579624f6223}, !- Inlet Port
  ;                                       !- Outlet Port

OS:Connection,
  {dceb9afc-8def-489f-b7c8-f579624f6223}, !- Handle
  {49465f7d-bac3-401d-89ae-60a3dc1ab592}, !- Source Object
  11,                                     !- Outlet Port
  {2c7b8b99-69b7-4984-bccc-a890c7975fd9}, !- Target Object
  2;                                      !- Inlet Port

OS:PortList,
  {eca92d66-37a9-4281-aa9a-2582ac8f9282}, !- Handle
  {49465f7d-bac3-401d-89ae-60a3dc1ab592}; !- HVAC Component

OS:PortList,
  {c1106ac8-fc1a-4feb-82ae-8bd2da42d220}, !- Handle
  {49465f7d-bac3-401d-89ae-60a3dc1ab592}; !- HVAC Component

OS:PortList,
  {18d52fba-cedc-4ada-b562-8757e2bff1c1}, !- Handle
  {49465f7d-bac3-401d-89ae-60a3dc1ab592}; !- HVAC Component

OS:Sizing:Zone,
  {44658ef2-a5a9-47a4-bd64-c598eb5dc16e}, !- Handle
  {49465f7d-bac3-401d-89ae-60a3dc1ab592}, !- Zone or ZoneList Name
  SupplyAirTemperature,                   !- Zone Cooling Design Supply Air Temperature Input Method
  14,                                     !- Zone Cooling Design Supply Air Temperature {C}
  11.11,                                  !- Zone Cooling Design Supply Air Temperature Difference {deltaC}
  SupplyAirTemperature,                   !- Zone Heating Design Supply Air Temperature Input Method
  40,                                     !- Zone Heating Design Supply Air Temperature {C}
  11.11,                                  !- Zone Heating Design Supply Air Temperature Difference {deltaC}
  0.0085,                                 !- Zone Cooling Design Supply Air Humidity Ratio {kg-H2O/kg-air}
  0.008,                                  !- Zone Heating Design Supply Air Humidity Ratio {kg-H2O/kg-air}
  ,                                       !- Zone Heating Sizing Factor
  ,                                       !- Zone Cooling Sizing Factor
  DesignDay,                              !- Cooling Design Air Flow Method
  ,                                       !- Cooling Design Air Flow Rate {m3/s}
  ,                                       !- Cooling Minimum Air Flow per Zone Floor Area {m3/s-m2}
  ,                                       !- Cooling Minimum Air Flow {m3/s}
  ,                                       !- Cooling Minimum Air Flow Fraction
  DesignDay,                              !- Heating Design Air Flow Method
  ,                                       !- Heating Design Air Flow Rate {m3/s}
  ,                                       !- Heating Maximum Air Flow per Zone Floor Area {m3/s-m2}
  ,                                       !- Heating Maximum Air Flow {m3/s}
  ,                                       !- Heating Maximum Air Flow Fraction
  No,                                     !- Account for Dedicated Outdoor Air System
  NeutralSupplyAir,                       !- Dedicated Outdoor Air System Control Strategy
  autosize,                               !- Dedicated Outdoor Air Low Setpoint Temperature for Design {C}
  autosize,                               !- Dedicated Outdoor Air High Setpoint Temperature for Design {C}
  Sensible Load Only No Latent Load,      !- Zone Load Sizing Method
  HumidityRatioDifference,                !- Zone Latent Cooling Design Supply Air Humidity Ratio Input Method
  ,                                       !- Zone Dehumidification Design Supply Air Humidity Ratio {kgWater/kgDryAir}
  0.005,                                  !- Zone Cooling Design Supply Air Humidity Ratio Difference {kgWater/kgDryAir}
  HumidityRatioDifference,                !- Zone Latent Heating Design Supply Air Humidity Ratio Input Method
  ,                                       !- Zone Humidification Design Supply Air Humidity Ratio {kgWater/kgDryAir}
  0.005,                                  !- Zone Humidification Design Supply Air Humidity Ratio Difference {kgWater/kgDryAir}
  ,                                       !- Zone Humidistat Dehumidification Set Point Schedule Name
  ,                                       !- Zone Humidistat Humidification Set Point Schedule Name
  ,                                       !- Design Zone Air Distribution Effectiveness in Cooling Mode
  ,                                       !- Design Zone Air Distribution Effectiveness in Heating Mode
  ,                                       !- Design Zone Secondary Recirculation Fraction {dimensionless}
  ,                                       !- Design Minimum Zone Ventilation Efficiency {dimensionless}
  Coincident;                             !- Sizing Option

OS:ZoneHVAC:EquipmentList,
  {884148dd-1a0e-4a4a-808f-4308b66c687c}, !- Handle
  Zone HVAC Equipment List 2,             !- Name
  {49465f7d-bac3-401d-89ae-60a3dc1ab592}; !- Thermal Zone

OS:AdditionalProperties,
  {8b277f0e-62f4-43d1-8f2f-9a59711a3f9c}, !- Handle
  {49465f7d-bac3-401d-89ae-60a3dc1ab592}, !- Object Name
  ObjectType,                             !- Feature Name 1
  String,                                 !- Feature Data Type 1
  attic - vented;                         !- Feature Value 1

OS:Space,
  {21be5347-5bea-49b4-a113-f1eac1269b37}, !- Handle
  attic - vented 1,                       !- Name
  ,                                       !- Space Type Name
  ,                                       !- Default Construction Set Name
  ,                                       !- Default Schedule Set Name
  ,                                       !- Direction of Relative North {deg}
  ,                                       !- X Origin {m}
  ,                                       !- Y Origin {m}
  ,                                       !- Z Origin {m}
  ,                                       !- Building Story Name
  {49465f7d-bac3-401d-89ae-60a3dc1ab592}, !- Thermal Zone Name
  ,                                       !- Part of Total Floor Area
  ,                                       !- Design Specification Outdoor Air Object Name
  ,                                       !- Building Unit Name
  356.389957095237;                       !- Volume {m3}

OS:Material,
  {fe19e071-7456-45f5-adb6-6cb6559649f1}, !- Handle
  asphalt or fiberglass shingles,         !- Name
  Rough,                                  !- Roughness
  0.00635,                                !- Thickness {m}
  0.162714,                               !- Conductivity {W/m-K}
  1121.4,                                 !- Density {kg/m3}
  1465.45,                                !- Specific Heat {J/kg-K}
  0.9,                                    !- Thermal Absorptance
  0.85,                                   !- Solar Absorptance