
OS:Version,
  {60259725-81a8-4048-962d-925210f9d852}, !- Handle
  3.9.0;                                  !- Version Identifier

OS:SimulationControl,
  {5340fdc0-1642-4327-9999-a18233311f8c}, !- Handle
  ,                                       !- Do Zone Sizing Calculation
  ,                                       !- Do System Sizing Calculation
  ,                                       !- Do Plant Sizing Calculation
  No;                                     !- Run Simulation for Sizing Periods

OS:Timestep,
  {7ce3200c-a556-4127-bb8e-6708aa6f61e4}, !- Handle
  1;                                      !- Number of Timesteps per Hour

OS:ShadowCalculation,
  {2a762ffb-0882-4fb0-b2aa-cbbe48ef9f1b}, !- Handle
  PolygonClipping,                        !- Shading Calculation Method
  ,                                       !- Shading Calculation Update Frequency Method
  20,                                     !- Shading Calculation Update Frequency
  200,                                    !- Maximum Figures in Shadow Overlap Calculations
  ,                                       !- Polygon Clipping Algorithm
  512,                                    !- Pixel Counting Resolution
  ,                                       !- Sky Diffuse Modeling Algorithm
  No,                                     !- Output External Shading Calculation Results
  No,                                     !- Disable Self-Shading Within Shading Zone Groups
  No;                                     !- Disable Self-Shading From Shading Zone Groups to Other Zones

OS:SurfaceConvectionAlgorithm:Outside,
  {5d52495e-f034-4df1-b114-f614391f8586}, !- Handle
  DOE-2;                                  !- Algorithm

OS:SurfaceConvectionAlgorithm:Inside,
  {f284cfc0-f181-424c-9cd1-13798a8adbea}, !- Handle
  TARP;                                   !- Algorithm

OS:ZoneCapacitanceMultiplier:ResearchSpecial,
  {b1a074ba-f6e8-48e5-b153-42c9ec3e4e9a}, !- Handle
  7,                                      !- Temperature Capacity Multiplier
  15,                                     !- Humidity Capacity Multiplier
  ;                                       !- Carbon Dioxide Capacity Multiplier

OS:ConvergenceLimits,
  {452cd9e1-3496-40fa-aee9-5ab180d519bb}, !- Handle
  0;                                      !- Minimum System Timestep {minutes}

OS:RunPeriod,
  {05eb9f6d-3f3d-4fe3-9f2a-b97f27bef516}, !- Handle
  Run Period 1,                           !- Name
  1,                                      !- Begin Month
  1,                                      !- Begin Day of Month
  12,                                     !- End Month
  31,                                     !- End Day of Month
  ,                                       !- Use Weather File Holidays and Special Days
  ,                                       !- Use Weather File Daylight Saving Period
  ,                                       !- Apply Weekend Holiday Rule
  ,                                       !- Use Weather File Rain Indicators
  ,                                       !- Use Weather File Snow Indicators
  ;                                       !- Number of Times Runperiod to be Repeated

OS:PerformancePrecisionTradeoffs,
  {94db5812-9577-4847-824f-27fc64810b33}, !- Handle
  ,                                       !- Use Coil Direct Solutions
  CarrollMRT;                             !- Zone Radiant Exchange Algorithm

OS:WeatherFile,
  {c300ab4c-862e-4cd9-a2f9-e8e046e3fedd}, !- Handle
  Buffalo Niagara Intl Ap,                !- City
  NY,                                     !- State Province Region
  USA,                                    !- Country
  TMY3,                                   !- Data Source
  725280,                                 !- WMO Number
  42.93,                                  !- Latitude {deg}
  -78.73,                                 !- Longitude {deg}
  -5,                                     !- Time Zone {hr}
  215,                                    !- Elevation {m}
  /Users/nmoore/github/urbanopt-example-geojson-project/example_project/weather/USA_NY_Buffalo-Greater.Buffalo.Intl.AP.725280_TMY3.epw, !- Url
  6B50E0FF,                               !- Checksum
  ,                                       !- Start Date Actual Year
  Sunday;                                 !- Start Day of Week

OS:YearDescription,
  {410d6619-ec26-469d-b29f-bcb3081fd230}, !- Handle
  2007,                                   !- Calendar Year
  ,                                       !- Day of Week for Start Day
  ;                                       !- Is Leap Year

OS:Site,
  {894f335c-9fd7-47fa-b7b2-a4e12a0db1a1}, !- Handle
  Buffalo Niagara Intl Ap_NY,             !- Name
  42.93,                                  !- Latitude {deg}
  -78.73,                                 !- Longitude {deg}
  -5,                                     !- Time Zone {hr}
  215,                                    !- Elevation {m}
  Suburbs,                                !- Terrain
  Yes;                                    !- Keep Site Location Information

OS:RunPeriodControl:DaylightSavingTime,
  {22d8960e-b37b-475a-9226-4b5bcd995486}, !- Handle
  Mar 12,                                 !- Start Date
  Nov 5;                                  !- End Date

OS:Site:GroundTemperature:Shallow,
  {15350bc2-b527-4d68-81ae-c70633bcd547}, !- Handle
  4.30207395723828,                       !- January Surface Ground Temperature {C}
  2.29327249652502,                       !- February Surface Ground Temperature {C}
  2.13240047156047,                       !- March Surface Ground Temperature {C}
  3.08567940719286,                       !- April Surface Ground Temperature {C}
  6.91256312497526,                       !- May Surface Ground Temperature {C}
  10.7216195949507,                       !- June Surface Ground Temperature {C}
  14.0238679822574,                       !- July Surface Ground Temperature {C}
  16.1157611184724,                       !- August Surface Ground Temperature {C}
  16.2934789303462,                       !- September Surface Ground Temperature {C}
  14.5920754632847,                       !- October Surface Ground Temperature {C}
  11.374036348653,                        !- November Surface Ground Temperature {C}
  7.68182621661674;                       !- December Surface Ground Temperature {C}

OS:ThermalZone,
  {e0f30308-73cf-45b7-b1ef-3d28af6f81df}, !- Handle
  conditioned space,                      !- Name
  1,                                      !- Multiplier
  ,                                       !- Ceiling Height {m}
  692.06373070848,                        !- Volume {m3}
  ,                                       !- Floor Area {m2}
  ,                                       !- Zone Inside Convection Algorithm
  ,                                       !- Zone Outside Convection Algorithm
  ,                                       !- Zone Conditioning Equipment List Name
  {bddfe5a3-011f-40c7-b64b-d69eb7a23649}, !- Zone Air Inlet Port List
  {ab91b5c4-f486-4699-88c9-10e8fab4436d}, !- Zone Air Exhaust Port List
  {e1a0a219-0e15-4db1-b980-26d33d728076}, !- Zone Air Node Name
  {035d633f-e683-488d-99b1-26f389facc26}, !- Zone Return Air Port List
  ,                                       !- Primary Daylighting Control Name
  ,                                       !- Fraction of Zone Controlled by Primary Daylighting Control
  ,                                       !- Secondary Daylighting Control Name
  ,                                       !- Fraction of Zone Controlled by Secondary Daylighting Control
  ,                                       !- Illuminance Map Name
  ,                                       !- Group Rendering Name
  {0a5d419f-3034-4e70-b68f-1054b9426f01}, !- Thermostat Name
  No;                                     !- Use Ideal Air Loads

OS:Node,
  {165faf12-7a5a-40f7-bf9c-40f5ff246f17}, !- Handle
  Node 1,                                 !- Name
  {e1a0a219-0e15-4db1-b980-26d33d728076}, !- Inlet Port
  ;                                       !- Outlet Port

OS:Connection,
  {e1a0a219-0e15-4db1-b980-26d33d728076}, !- Handle
  {e0f30308-73cf-45b7-b1ef-3d28af6f81df}, !- Source Object
  11,                                     !- Outlet Port
  {165faf12-7a5a-40f7-bf9c-40f5ff246f17}, !- Target Object
  2;                                      !- Inlet Port

OS:PortList,
  {bddfe5a3-011f-40c7-b64b-d69eb7a23649}, !- Handle
  {e0f30308-73cf-45b7-b1ef-3d28af6f81df}, !- HVAC Component
  {686a0a2e-1733-4588-a140-cc36396971e0}; !- Port 1

OS:PortList,
  {ab91b5c4-f486-4699-88c9-10e8fab4436d}, !- Handle
  {e0f30308-73cf-45b7-b1ef-3d28af6f81df}; !- HVAC Component

OS:PortList,
  {035d633f-e683-488d-99b1-26f389facc26}, !- Handle
  {e0f30308-73cf-45b7-b1ef-3d28af6f81df}, !- HVAC Component
  {30f9d7c7-e4e2-422c-aff2-de4c1508b768}; !- Port 1

OS:Sizing:Zone,
  {ccb908cf-6fdd-40c1-a80a-cfb354049645}, !- Handle
  {e0f30308-73cf-45b7-b1ef-3d28af6f81df}, !- Zone or ZoneList Name
  SupplyAirTemperature,                   !- Zone Cooling Design Supply Air Temperature Input Method
  14,                                     !- Zone Cooling Design Supply Air Temperature {C}
  11.11,                                  !- Zone Cooling Design Supply Air Temperature Difference {deltaC}
  SupplyAirTemperature,                   !- Zone Heating Design Supply Air Temperature Input Method
  40,                                     !- Zone Heating Design Supply Air Temperature {C}
  11.11,                                  !- Zone Heating Design Supply Air Temperature Difference {deltaC}
  0.0085,                                 !- Zone Cooling Design Supply Air Humidity Ratio {kg-H2O/kg-air}
  0.008,                                  !- Zone Heating Design Supply Air Humidity Ratio {kg-H2O/kg-air}
  ,                                       !- Zone Heating Sizing Factor
  ,                                       !- Zone Cooling Sizing Factor
  DesignDay,                              !- Cooling Design Air Flow Method
  ,                                       !- Cooling Design Air Flow Rate {m3/s}
  ,                                       !- Cooling Minimum Air Flow per Zone Floor Area {m3/s-m2}
  ,                                       !- Cooling Minimum Air Flow {m3/s}
  ,                                       !- Cooling Minimum Air Flow Fraction
  DesignDay,                              !- Heating Design Air Flow Method
  ,                                       !- Heating Design Air Flow Rate {m3/s}
  ,                                       !- Heating Maximum Air Flow per Zone Floor Area {m3/s-m2}
  ,                                       !- Heating Maximum Air Flow {m3/s}
  ,                                       !- Heating Maximum Air Flow Fraction
  No,                                     !- Account for Dedicated Outdoor Air System
  NeutralSupplyAir,                       !- Dedicated Outdoor Air System Control Strategy
  autosize,                               !- Dedicated Outdoor Air Low Setpoint Temperature for Design {C}
  autosize,                               !- Dedicated Outdoor Air High Setpoint Temperature for Design {C}
  Sensible Load Only No Latent Load,      !- Zone Load Sizing Method
  HumidityRatioDifference,                !- Zone Latent Cooling Design Supply Air Humidity Ratio Input Method
  ,                                       !- Zone Dehumidification Design Supply Air Humidity Ratio {kgWater/kgDryAir}
  0.005,                                  !- Zone Cooling Design Supply Air Humidity Ratio Difference {kgWater/kgDryAir}
  HumidityRatioDifference,                !- Zone Latent Heating Design Supply Air Humidity Ratio Input Method
  ,                                       !- Zone Humidification Design Supply Air Humidity Ratio {kgWater/kgDryAir}
  0.005,                                  !- Zone Humidification Design Supply Air Humidity Ratio Difference {kgWater/kgDryAir}
  ,                                       !- Zone Humidistat Dehumidification Set Point Schedule Name
  ,                                       !- Zone Humidistat Humidification Set Point Schedule Name
  ,                                       !- Design Zone Air Distribution Effectiveness in Cooling Mode
  ,                                       !- Design Zone Air Distribution Effectiveness in Heating Mode
  ,                                       !- Design Zone Secondary Recirculation Fraction {dimensionless}
  ,                                       !- Design Minimum Zone Ventilation Efficiency {dimensionless}
  Coincident;                             !- Sizing Option

OS:ZoneHVAC:EquipmentList,
  {78872513-037b-4cdf-9b87-54d4273655dc}, !- Handle
  Zone HVAC Equipment List 1,             !- Name
  {e0f30308-73cf-45b7-b1ef-3d28af6f81df}, !- Thermal Zone
  ,                                       !- Load Distribution Scheme
  {6553995e-eca0-4d8a-82d5-b81ed0d9cf37}, !- Zone Equipment 1
  1,                                      !- Zone Equipment Cooling Sequence 1
  1,                                      !- Zone Equipment Heating or No-Load Sequence 1
  {1cb63cd9-f1dc-425d-9a92-f096be3ebe40}, !- Zone Equipment Sequential Cooling Fraction Schedule Name 1
  {600ad3f7-230b-4922-ba5a-017a01b7c149}; !- Zone Equipment Sequential Heating Fraction Schedule Name 1

OS:AdditionalProperties,
  {85ee2925-1b4f-4607-9b4d-c1d719115380}, !- Handle
  {e0f30308-73cf-45b7-b1ef-3d28af6f81df}, !- Object Name
  ObjectType,                             !- Feature Name 1
  String,                                 !- Feature Data Type 1
  conditioned space;                      !- Feature Value 1

OS:Space,
  {b3c8970d-d49b-4db5-a7b2-17959c01e7ac}, !- Handle
  conditioned space 1,                    !- Name
  ,                                       !- Space Type Name
  ,                                       !- Default Construction Set Name
  ,                                       !- Default Schedule Set Name
  ,                                       !- Direction of Relative North {deg}
  ,                                       !- X Origin {m}
  ,                                       !- Y Origin {m}
  ,                                       !- Z Origin {m}
  ,                                       !- Building Story Name
  {e0f30308-73cf-45b7-b1ef-3d28af6f81df}, !- Thermal Zone Name
  ,                                       !- Part of Total Floor Area
  ,                                       !- Design Specification Outdoor Air Object Name
  ,                                       !- Building Unit Name
  692.06373070848;                        !- Volume {m3}

OS:Schedule:Ruleset,
  {1d790501-1fb3-4358-832a-59bab51e52da}, !- Handle
  heating setpoint,                       !- Name
  {d72d490f-e3cf-4aa8-ba51-fe727cac6efb}, !- Schedule Type Limits Name
  {147125d4-ccac-4340-a8cc-bc0ecceb6ba8}; !- Default Day Schedule Name

OS:Schedule:Day,
  {147125d4-ccac-4340-a8cc-bc0ecceb6ba8}, !- Handle
  heating setpoint default day,           !- Name
  {d72d490f-e3cf-4aa8-ba51-fe727cac6efb}, !- Schedule Type Limits Name
  ,                                       !- Interpolate to Timestep
  24,                                     !- Hour 1
  0,                                      !- Minute 1
  0;                                      !- Value Until Time 1

OS:Schedule:Rule,
  {26d269ba-48e4-499b-ac59-7bc58e962ad4}, !- Handle
  heating setpoint allday rule,           !- Name
  {1d790501-1fb3-4358-832a-59bab51e52da}, !- Schedule Ruleset Name
  0,                                      !- Rule Order
  {8ab5713c-9864-4a4e-a634-321135942067}, !- Day Schedule Name
  Yes,                                    !- Apply Sunday
  Yes,                                    !- Apply Monday
  Yes,                                    !- Apply Tuesday
  Yes,                                    !- Apply Wednesday
  Yes,                                    !- Apply Thursday
  Yes,                                    !- Apply Friday
  Yes,                                    !- Apply Saturday
  DateRange,                              !- Date Specification Type
  1,                                      !- Start Month
  1,                                      !- Start Day
  12,                                     !- End Month
  31;                                     !- End Day

OS:Schedule:Day,
  {8ab5713c-9864-4a4e-a634-321135942067}, !- Handle
  heating setpoint day,                   !- Name
  {d72d490f-e3cf-4aa8-ba51-fe727cac6efb}, !- Schedule Type Limits Name
  ,                                       !- Interpolate to Timestep
  24,                                     !- Hour 1
  0,                                      !- Minute 1
  20;                                     !- Value Until Time 1

OS:Schedule:Ruleset,
  {6a19acf5-1f95-4c65-99e1-7c39c8c0c103}, !- Handle
  cooling setpoint,                       !- Name
  {d72d490f-e3cf-4aa8-ba51-fe727cac6efb}, !- Schedule Type Limits Name
  {664d48cc-ef10-4c2c-a511-a41893333d5d}; !- Default Day Schedule Name

OS:Schedule:Day,
  {664d48cc-ef10-4c2c-a511-a41893333d5d}, !- Handle
  cooling setpoint default day,           !- Name
  {d72d490f-e3cf-4aa8-ba51-fe727cac6efb}, !- Schedule Type Limits Name
  ,                                       !- Interpolate to Timestep
  24,                                     !- Hour 1
  0,                                      !- Minute 1
  0;                                      !- Value Until Time 1

OS:Schedule:Rule,
  {0bd94704-f858-471f-8a64-d533b7eb4bc1}, !- Handle
  cooling setpoint allday rule,           !- Name
  {6a19acf5-1f95-4c65-99e1-7c39c8c0c103}, !- Schedule Ruleset Name
  0,                                      !- Rule Order
  {36192e2a-8f19-473a-84e9-f921bd0ac44b}, !- Day Schedule Name
  Yes,                                    !- Apply Sunday
  Yes,                                    !- Apply Monday
  Yes,                                    !- Apply Tuesday
  Yes,                                    !- Apply Wednesday
  Yes,                                    !- Apply Thursday
  Yes,                                    !- Apply Friday
  Yes,                                    !- Apply Saturday
  DateRange,                              !- Date Specification Type
  1,                                      !- Start Month
  1,                                      !- Start Day
  12,                                     !- End Month
  31;                                     !- End Day

OS:Schedule:Day,
  {36192e2a-8f19-473a-84e9-f921bd0ac44b}, !- Handle
  cooling setpoint day,                   !- Name
  {d72d490f-e3cf-4aa8-ba51-fe727cac6efb}, !- Schedule Type Limits Name
  ,                                       !- Interpolate to Timestep
  24,                                     !- Hour 1
  0,                                      !- Minute 1
  25.5555555555556;                       !- Value Until Time 1

OS:ThermostatSetpoint:DualSetpoint,
  {0a5d419f-3034-4e70-b68f-1054b9426f01}, !- Handle
  conditioned space temperature setpoint, !- Name
  {1d790501-1fb3-4358-832a-59bab51e52da}, !- Heating Setpoint Temperature Schedule Name
  {6a19acf5-1f95-4c65-99e1-7c39c8c0c103}, !- Cooling Setpoint Temperature Schedule Name
  0;                                      !- Temperature Difference Between Cutout And Setpoint {deltaC}

OS:ScheduleTypeLimits,
  {d72d490f-e3cf-4aa8-ba51-fe727cac6efb}, !- Handle
  Temperature,                            !- Name
  ,                                       !- Lower Limit Value
  ,                                       !- Upper Limit Value
  Continuous,                             !- Numeric Type
  Temperature;                            !- Unit Type

OS:Surface,
  {e64318f6-6d45-408d-9ada-5d2cb47d0c85}, !- Handle
  Roof1,                                  !- Name
  RoofCeiling,                            !- Surface Type
  {44dc9690-0e7c-463a-86f7-0dd2d7b8f868}, !- Construction Name
  {ece44e06-08d7-46e0-9302-665335a145b9}, !- Space Name
  Outdoors,                               !- Outside Boundary Condition
  ,                                       !- Outside Boundary Condition Object
  SunExposed,                             !- Sun Exposure
  WindExposed,                            !- Wind Exposure
  ,                                       !- View Factor to Ground
  ,                                       !- Number of Vertices
  -26.9347048849634, 58.0557891618865, 2.4384, !- X,Y,Z Vertex 1 {m}
  -26.9347048849634, 46.7895631136661, 8.0715130241102, !- X,Y,Z Vertex 2 {m}
  -14.3386812381136, 46.7895631136661, 8.0715130241102, !- X,Y,Z Vertex 3 {m}
  -14.3386812381136, 58.0557891618865, 2.4384; !- X,Y,Z Vertex 4 {m}

OS:AdditionalProperties,
  {04c029f8-60d6-4b17-8980-d20377505c6f}, !- Handle
  {e64318f6-6d45-408d-9ada-5d2cb47d0c85}, !- Object Name
  Length,                                 !- Feature Name 1
  Double,                                 !- Feature Data Type 1
  41.325536899113608,                     !- Feature Value 1
  Width,                                  !- Feature Name 2
  Double,                                 !- Feature Data Type 2
  41.325536899113601,                     !- Feature Value 2
  Azimuth,                                !- Feature Name 3
  Integer,                                !- Feature Data Type 3
  0,                                      !- Feature Value 3
  Tilt,                                   !- Feature Name 4
  Double,                                 !- Feature Data Type 4
  0.5,                                    !- Feature Value 4
  SurfaceType,                            !- Feature Name 5
  String,                                 !- Feature Data Type 5
  Roof;                                   !- Feature Value 5

OS:ThermalZone,
  {781177c6-63b0-4375-91ce-89a67e439918}, !- Handle
  attic - vented,                         !- Name
  1,                                      !- Multiplier
  ,                                       !- Ceiling Height {m}
  356.389957095237,                       !- Volume {m3}
  ,                                       !- Floor Area {m2}
  ,                                       !- Zone Inside Convection Algorithm
  ,                                       !- Zone Outside Convection Algorithm
  ,                                       !- Zone Conditioning Equipment List Name
  {9759374d-e1ef-4766-8635-52b09f09036c}, !- Zone Air Inlet Port List
  {cf724596-5f4c-4a6c-98a3-d1450a7a912b}, !- Zone Air Exhaust Port List
  {bed36bad-f9fa-4b4c-b270-6ecc9b1d9e22}, !- Zone Air Node Name
  {773c8ff3-4559-4bc1-8416-0b5494dcf7e8}, !- Zone Return Air Port List
  ,                                       !- Primary Daylighting Control Name
  ,                                       !- Fraction of Zone Controlled by Primary Daylighting Control
  ,                                       !- Secondary Daylighting Control Name
  ,                                       !- Fraction of Zone Controlled by Secondary Daylighting Control
  ,                                       !- Illuminance Map Name
  ,                                       !- Group Rendering Name
  ,                                       !- Thermostat Name
  No;                                     !- Use Ideal Air Loads

OS:Node,
  {257e0b07-1f52-4b78-949e-0366bb230b3f}, !- Handle
  Node 2,                                 !- Name
  {bed36bad-f9fa-4b4c-b270-6ecc9b1d9e22}, !- Inlet Port
  ;                                       !- Outlet Port

OS:Connection,
  {bed36bad-f9fa-4b4c-b270-6ecc9b1d9e22}, !- Handle
  {781177c6-63b0-4375-91ce-89a67e439918}, !- Source Object
  11,                                     !- Outlet Port
  {257e0b07-1f52-4b78-949e-0366bb230b3f}, !- Target Object
  2;                                      !- Inlet Port

OS:PortList,
  {9759374d-e1ef-4766-8635-52b09f09036c}, !- Handle
  {781177c6-63b0-4375-91ce-89a67e439918}; !- HVAC Component

OS:PortList,
  {cf724596-5f4c-4a6c-98a3-d1450a7a912b}, !- Handle
  {781177c6-63b0-4375-91ce-89a67e439918}; !- HVAC Component

OS:PortList,
  {773c8ff3-4559-4bc1-8416-0b5494dcf7e8}, !- Handle
  {781177c6-63b0-4375-91ce-89a67e439918}; !- HVAC Component

OS:Sizing:Zone,
  {354798f7-0cdf-4405-8130-712d75a0dc7b}, !- Handle
  {781177c6-63b0-4375-91ce-89a67e439918}, !- Zone or ZoneList Name
  SupplyAirTemperature,                   !- Zone Cooling Design Supply Air Temperature Input Method
  14,                                     !- Zone Cooling Design Supply Air Temperature {C}
  11.11,                                  !- Zone Cooling Design Supply Air Temperature Difference {deltaC}
  SupplyAirTemperature,                   !- Zone Heating Design Supply Air Temperature Input Method
  40,                                     !- Zone Heating Design Supply Air Temperature {C}
  11.11,                                  !- Zone Heating Design Supply Air Temperature Difference {deltaC}
  0.0085,                                 !- Zone Cooling Design Supply Air Humidity Ratio {kg-H2O/kg-air}
  0.008,                                  !- Zone Heating Design Supply Air Humidity Ratio {kg-H2O/kg-air}
  ,                                       !- Zone Heating Sizing Factor
  ,                                       !- Zone Cooling Sizing Factor
  DesignDay,                              !- Cooling Design Air Flow Method
  ,                                       !- Cooling Design Air Flow Rate {m3/s}
  ,                                       !- Cooling Minimum Air Flow per Zone Floor Area {m3/s-m2}
  ,                                       !- Cooling Minimum Air Flow {m3/s}
  ,                                       !- Cooling Minimum Air Flow Fraction
  DesignDay,                              !- Heating Design Air Flow Method
  ,                                       !- Heating Design Air Flow Rate {m3/s}
  ,                                       !- Heating Maximum Air Flow per Zone Floor Area {m3/s-m2}
  ,                                       !- Heating Maximum Air Flow {m3/s}
  ,                                       !- Heating Maximum Air Flow Fraction
  No,                                     !- Account for Dedicated Outdoor Air System
  NeutralSupplyAir,                       !- Dedicated Outdoor Air System Control Strategy
  autosize,                               !- Dedicated Outdoor Air Low Setpoint Temperature for Design {C}
  autosize,                               !- Dedicated Outdoor Air High Setpoint Temperature for Design {C}
  Sensible Load Only No Latent Load,      !- Zone Load Sizing Method
  HumidityRatioDifference,                !- Zone Latent Cooling Design Supply Air Humidity Ratio Input Method
  ,                                       !- Zone Dehumidification Design Supply Air Humidity Ratio {kgWater/kgDryAir}
  0.005,                                  !- Zone Cooling Design Supply Air Humidity Ratio Difference {kgWater/kgDryAir}
  HumidityRatioDifference,                !- Zone Latent Heating Design Supply Air Humidity Ratio Input Method
  ,                                       !- Zone Humidification Design Supply Air Humidity Ratio {kgWater/kgDryAir}
  0.005,                                  !- Zone Humidification Design Supply Air Humidity Ratio Difference {kgWater/kgDryAir}
  ,                                       !- Zone Humidistat Dehumidification Set Point Schedule Name
  ,                                       !- Zone Humidistat Humidification Set Point Schedule Name
  ,                                       !- Design Zone Air Distribution Effectiveness in Cooling Mode
  ,                                       !- Design Zone Air Distribution Effectiveness in Heating Mode
  ,                                       !- Design Zone Secondary Recirculation Fraction {dimensionless}
  ,                                       !- Design Minimum Zone Ventilation Efficiency {dimensionless}
  Coincident;                             !- Sizing Option

OS:ZoneHVAC:EquipmentList,
  {95453227-aac5-477b-9cd4-f59134399f2f}, !- Handle
  Zone HVAC Equipment List 2,             !- Name
  {781177c6-63b0-4375-91ce-89a67e439918}; !- Thermal Zone

OS:AdditionalProperties,
  {9935c610-9109-42e7-ac99-2cbc8652609a}, !- Handle
  {781177c6-63b0-4375-91ce-89a67e439918}, !- Object Name
  ObjectType,                             !- Feature Name 1
  String,                                 !- Feature Data Type 1
  attic - vented;                         !- Feature Value 1

OS:Space,
  {ece44e06-08d7-46e0-9302-665335a145b9}, !- Handle
  attic - vented 1,                       !- Name
  ,                                       !- Space Type Name
  ,                                       !- Default Construction Set Name
  ,                                       !- Default Schedule Set Name
  ,                                       !- Direction of Relative North {deg}
  ,                                       !- X Origin {m}
  ,                                       !- Y Origin {m}
  ,                                       !- Z Origin {m}
  ,                                       !- Building Story Name
  {781177c6-63b0-4375-91ce-89a67e439918}, !- Thermal Zone Name
  ,                                       !- Part of Total Floor Area
  ,                                       !- Design Specification Outdoor Air Object Name
  ,                                       !- Building Unit Name
  356.389957095237;                       !- Volume {m3}

OS:Material,
  {821653c5-a20e-43a9-af57-a8883f667b86}, !- Handle
  asphalt or fiberglass shingles,         !- Name
  Rough,                                  !- Roughness
  0.00635,                                !- Thickness {m}
  0.162714,                               !- Conductivity {W/m-K}
  1121.4,                                 !- Density {kg/m3}
  1465.45,                                !- Specific Heat {J/kg-K}
  0.9,                                    !- Thermal Absorptance
  0.85,                                   !- Solar Absorptance