
OS:Version,
  {7d11763d-0f4b-4349-be48-7d83f760521d}, !- Handle
  3.10.0;                                 !- Version Identifier

OS:SimulationControl,
  {023df5b3-7859-4baf-b04e-6341ce540df0}, !- Handle
  ,                                       !- Do Zone Sizing Calculation
  ,                                       !- Do System Sizing Calculation
  ,                                       !- Do Plant Sizing Calculation
  No;                                     !- Run Simulation for Sizing Periods

OS:Timestep,
  {049a7e35-d49c-406a-af41-616af7318666}, !- Handle
  1;                                      !- Number of Timesteps per Hour

OS:ShadowCalculation,
  {85354b92-a615-48d3-a258-d2c277c7e996}, !- Handle
  PolygonClipping,                        !- Shading Calculation Method
  ,                                       !- Shading Calculation Update Frequency Method
  20,                                     !- Shading Calculation Update Frequency
  200,                                    !- Maximum Figures in Shadow Overlap Calculations
  ,                                       !- Polygon Clipping Algorithm
  512,                                    !- Pixel Counting Resolution
  ,                                       !- Sky Diffuse Modeling Algorithm
  No,                                     !- Output External Shading Calculation Results
  No,                                     !- Disable Self-Shading Within Shading Zone Groups
  No;                                     !- Disable Self-Shading From Shading Zone Groups to Other Zones

OS:SurfaceConvectionAlgorithm:Outside,
  {89811877-80e0-4971-943a-c7ba6f42a85b}, !- Handle
  DOE-2;                                  !- Algorithm

OS:SurfaceConvectionAlgorithm:Inside,
  {9ba7a7dc-342b-4248-8aab-fed4e92429be}, !- Handle
  TARP;                                   !- Algorithm

OS:ZoneCapacitanceMultiplier:ResearchSpecial,
  {4ef9b8c3-3ebc-4392-bf11-53ded979513d}, !- Handle
  7,                                      !- Temperature Capacity Multiplier
  15,                                     !- Humidity Capacity Multiplier
  ;                                       !- Carbon Dioxide Capacity Multiplier

OS:ConvergenceLimits,
  {d9bdb4f3-c779-42d7-889f-f827a8a62dfd}, !- Handle
  0;                                      !- Minimum System Timestep {minutes}

OS:RunPeriod,
  {afafb618-c818-4dc5-ad8c-780344a6e18c}, !- Handle
  Run Period 1,                           !- Name
  1,                                      !- Begin Month
  1,                                      !- Begin Day of Month
  12,                                     !- End Month
  31,                                     !- End Day of Month
  ,                                       !- Use Weather File Holidays and Special Days
  ,                                       !- Use Weather File Daylight Saving Period
  ,                                       !- Apply Weekend Holiday Rule
  ,                                       !- Use Weather File Rain Indicators
  ,                                       !- Use Weather File Snow Indicators
  ;                                       !- Number of Times Runperiod to be Repeated

OS:PerformancePrecisionTradeoffs,
  {4bfa336a-fe8e-4ac3-ac43-964119740ab3}, !- Handle
  ,                                       !- Use Coil Direct Solutions
  CarrollMRT;                             !- Zone Radiant Exchange Algorithm

OS:WeatherFile,
  {33db8848-9184-4ab2-a905-2581f9321552}, !- Handle
  Buffalo Niagara Intl Ap,                !- City
  NY,                                     !- State Province Region
  USA,                                    !- Country
  TMY3,                                   !- Data Source
  725280,                                 !- WMO Number
  42.93,                                  !- Latitude {deg}
  -78.73,                                 !- Longitude {deg}
  -5,                                     !- Time Zone {hr}
  215,                                    !- Elevation {m}
  /Users/nmoore/github/urbanopt-example-geojson-project/example_project/weather/USA_NY_Buffalo-Greater.Buffalo.Intl.AP.725280_TMY3.epw, !- Url
  6B50E0FF,                               !- Checksum
  ,                                       !- Start Date Actual Year
  Sunday;                                 !- Start Day of Week

OS:YearDescription,
  {4c184942-66fd-47d1-9bf9-546272dabba2}, !- Handle
  2007,                                   !- Calendar Year
  ,                                       !- Day of Week for Start Day
  ;                                       !- Is Leap Year

OS:Site,
  {1eb3fe0a-185c-48c8-9a61-3db1f1449caa}, !- Handle
  Buffalo Niagara Intl Ap_NY,             !- Name
  42.93,                                  !- Latitude {deg}
  -78.73,                                 !- Longitude {deg}
  -5,                                     !- Time Zone {hr}
  215,                                    !- Elevation {m}
  Suburbs,                                !- Terrain
  Yes;                                    !- Keep Site Location Information

OS:RunPeriodControl:DaylightSavingTime,
  {934a5c7a-134c-485c-a84d-a244bf1e14fc}, !- Handle
  Mar 12,                                 !- Start Date
  Nov 5;                                  !- End Date

OS:Site:GroundTemperature:Shallow,
  {7fbf238a-6daa-4ee5-a90e-734bb1e36b3b}, !- Handle
  4.30207395723828,                       !- January Surface Ground Temperature {C}
  2.29327249652502,                       !- February Surface Ground Temperature {C}
  2.13240047156047,                       !- March Surface Ground Temperature {C}
  3.08567940719286,                       !- April Surface Ground Temperature {C}
  6.91256312497526,                       !- May Surface Ground Temperature {C}
  10.7216195949507,                       !- June Surface Ground Temperature {C}
  14.0238679822574,                       !- July Surface Ground Temperature {C}
  16.1157611184724,                       !- August Surface Ground Temperature {C}
  16.2934789303462,                       !- September Surface Ground Temperature {C}
  14.5920754632847,                       !- October Surface Ground Temperature {C}
  11.374036348653,                        !- November Surface Ground Temperature {C}
  7.68182621661674;                       !- December Surface Ground Temperature {C}

OS:ThermalZone,
  {19212510-d048-428b-8815-04fb3a35f8fb}, !- Handle
  conditioned space,                      !- Name
  1,                                      !- Multiplier
  ,                                       !- Ceiling Height {m}
  346.03186535424,                        !- Volume {m3}
  ,                                       !- Floor Area {m2}
  ,                                       !- Zone Inside Convection Algorithm
  ,                                       !- Zone Outside Convection Algorithm
  ,                                       !- Zone Conditioning Equipment List Name
  {dd473b09-670c-41cd-b192-039a78e0b4e7}, !- Zone Air Inlet Port List
  {0a03d8f8-f122-43a7-b722-bc65efa91a17}, !- Zone Air Exhaust Port List
  {98fb76dd-0888-4c41-8069-8c1145aa03f8}, !- Zone Air Node Name
  {409056b7-c042-47ba-a9ed-057166a96aab}, !- Zone Return Air Port List
  ,                                       !- Primary Daylighting Control Name
  ,                                       !- Fraction of Zone Controlled by Primary Daylighting Control
  ,                                       !- Secondary Daylighting Control Name
  ,                                       !- Fraction of Zone Controlled by Secondary Daylighting Control
  ,                                       !- Illuminance Map Name
  ,                                       !- Group Rendering Name
  {d1e37b34-dd8c-4ae1-a09c-e2c04b3392d1}, !- Thermostat Name
  No;                                     !- Use Ideal Air Loads

OS:Node,
  {2f450b11-e993-403e-a95f-0122ac9a1606}, !- Handle
  Node 1,                                 !- Name
  {98fb76dd-0888-4c41-8069-8c1145aa03f8}, !- Inlet Port
  ;                                       !- Outlet Port

OS:Connection,
  {98fb76dd-0888-4c41-8069-8c1145aa03f8}, !- Handle
  {19212510-d048-428b-8815-04fb3a35f8fb}, !- Source Object
  11,                                     !- Outlet Port
  {2f450b11-e993-403e-a95f-0122ac9a1606}, !- Target Object
  2;                                      !- Inlet Port

OS:PortList,
  {dd473b09-670c-41cd-b192-039a78e0b4e7}, !- Handle
  {19212510-d048-428b-8815-04fb3a35f8fb}, !- HVAC Component
  {727c82a9-8981-4447-83ae-958a2abd40ab}; !- Port 1

OS:PortList,
  {0a03d8f8-f122-43a7-b722-bc65efa91a17}, !- Handle
  {19212510-d048-428b-8815-04fb3a35f8fb}; !- HVAC Component

OS:PortList,
  {409056b7-c042-47ba-a9ed-057166a96aab}, !- Handle
  {19212510-d048-428b-8815-04fb3a35f8fb}, !- HVAC Component
  {8b04bf5f-7dc0-472b-ab16-f5a434ab4fdc}; !- Port 1

OS:Sizing:Zone,
  {d822ae50-9e4b-40d2-92ff-51ea6fe6703a}, !- Handle
  {19212510-d048-428b-8815-04fb3a35f8fb}, !- Zone or ZoneList Name
  SupplyAirTemperature,                   !- Zone Cooling Design Supply Air Temperature Input Method
  14,                                     !- Zone Cooling Design Supply Air Temperature {C}
  11.11,                                  !- Zone Cooling Design Supply Air Temperature Difference {deltaC}
  SupplyAirTemperature,                   !- Zone Heating Design Supply Air Temperature Input Method
  40,                                     !- Zone Heating Design Supply Air Temperature {C}
  11.11,                                  !- Zone Heating Design Supply Air Temperature Difference {deltaC}
  0.0085,                                 !- Zone Cooling Design Supply Air Humidity Ratio {kg-H2O/kg-air}
  0.008,                                  !- Zone Heating Design Supply Air Humidity Ratio {kg-H2O/kg-air}
  ,                                       !- Zone Heating Sizing Factor
  ,                                       !- Zone Cooling Sizing Factor
  DesignDay,                              !- Cooling Design Air Flow Method
  ,                                       !- Cooling Design Air Flow Rate {m3/s}
  ,                                       !- Cooling Minimum Air Flow per Zone Floor Area {m3/s-m2}
  ,                                       !- Cooling Minimum Air Flow {m3/s}
  ,                                       !- Cooling Minimum Air Flow Fraction
  DesignDay,                              !- Heating Design Air Flow Method
  ,                                       !- Heating Design Air Flow Rate {m3/s}
  ,                                       !- Heating Maximum Air Flow per Zone Floor Area {m3/s-m2}
  ,                                       !- Heating Maximum Air Flow {m3/s}
  ,                                       !- Heating Maximum Air Flow Fraction
  No,                                     !- Account for Dedicated Outdoor Air System
  NeutralSupplyAir,                       !- Dedicated Outdoor Air System Control Strategy
  autosize,                               !- Dedicated Outdoor Air Low Setpoint Temperature for Design {C}
  autosize,                               !- Dedicated Outdoor Air High Setpoint Temperature for Design {C}
  Sensible Load Only No Latent Load,      !- Zone Load Sizing Method
  HumidityRatioDifference,                !- Zone Latent Cooling Design Supply Air Humidity Ratio Input Method
  ,                                       !- Zone Dehumidification Design Supply Air Humidity Ratio {kgWater/kgDryAir}
  0.005,                                  !- Zone Cooling Design Supply Air Humidity Ratio Difference {kgWater/kgDryAir}
  HumidityRatioDifference,                !- Zone Latent Heating Design Supply Air Humidity Ratio Input Method
  ,                                       !- Zone Humidification Design Supply Air Humidity Ratio {kgWater/kgDryAir}
  0.005,                                  !- Zone Humidification Design Supply Air Humidity Ratio Difference {kgWater/kgDryAir}
  ,                                       !- Zone Humidistat Dehumidification Set Point Schedule Name
  ,                                       !- Zone Humidistat Humidification Set Point Schedule Name
  ,                                       !- Design Zone Air Distribution Effectiveness in Cooling Mode
  ,                                       !- Design Zone Air Distribution Effectiveness in Heating Mode
  ,                                       !- Design Zone Secondary Recirculation Fraction {dimensionless}
  ,                                       !- Design Minimum Zone Ventilation Efficiency {dimensionless}
  Coincident;                             !- Sizing Option

OS:ZoneHVAC:EquipmentList,
  {e273f7a6-5ad4-4026-ba16-09ec18b1be36}, !- Handle
  Zone HVAC Equipment List 1,             !- Name
  {19212510-d048-428b-8815-04fb3a35f8fb}, !- Thermal Zone
  ,                                       !- Load Distribution Scheme
  {6b2564c5-8555-4884-aad6-5f839115fc71}, !- Zone Equipment 1
  1,                                      !- Zone Equipment Cooling Sequence 1
  1,                                      !- Zone Equipment Heating or No-Load Sequence 1
  {ced789eb-b931-477c-98d6-2cc8dfd39ac1}, !- Zone Equipment Sequential Cooling Fraction Schedule Name 1
  {cf1ec20f-47ef-4df8-a728-2e2ac39847af}; !- Zone Equipment Sequential Heating Fraction Schedule Name 1

OS:AdditionalProperties,
  {784732f0-b3f9-4986-b2d9-8261abc52c7c}, !- Handle
  {19212510-d048-428b-8815-04fb3a35f8fb}, !- Object Name
  ObjectType,                             !- Feature Name 1
  String,                                 !- Feature Data Type 1
  conditioned space;                      !- Feature Value 1

OS:Space,
  {cfd35c21-5ec7-4337-bf4a-18b80ba75371}, !- Handle
  conditioned space 1,                    !- Name
  ,                                       !- Space Type Name
  ,                                       !- Default Construction Set Name
  ,                                       !- Default Schedule Set Name
  ,                                       !- Direction of Relative North {deg}
  ,                                       !- X Origin {m}
  ,                                       !- Y Origin {m}
  ,                                       !- Z Origin {m}
  ,                                       !- Building Story Name
  {19212510-d048-428b-8815-04fb3a35f8fb}, !- Thermal Zone Name
  ,                                       !- Part of Total Floor Area
  ,                                       !- Design Specification Outdoor Air Object Name
  ,                                       !- Building Unit Name
  346.03186535424;                        !- Volume {m3}

OS:Schedule:Ruleset,
  {4be0dc1f-19b7-43da-896a-054c20576aec}, !- Handle
  heating setpoint,                       !- Name
  {5d74202a-1ff2-4f06-be52-81d0707fea1b}, !- Schedule Type Limits Name
  {201e1e75-75c2-4c0e-a2f5-bccbe6ef727a}; !- Default Day Schedule Name

OS:Schedule:Day,
  {201e1e75-75c2-4c0e-a2f5-bccbe6ef727a}, !- Handle
  heating setpoint default day,           !- Name
  {5d74202a-1ff2-4f06-be52-81d0707fea1b}, !- Schedule Type Limits Name
  ,                                       !- Interpolate to Timestep
  24,                                     !- Hour 1
  0,                                      !- Minute 1
  0;                                      !- Value Until Time 1

OS:Schedule:Rule,
  {c4b1f50f-c173-4ed3-aa33-a7689e0c4982}, !- Handle
  heating setpoint allday rule,           !- Name
  {4be0dc1f-19b7-43da-896a-054c20576aec}, !- Schedule Ruleset Name
  0,                                      !- Rule Order
  {a1f0ed87-6d66-4bb3-b586-5477f7d01392}, !- Day Schedule Name
  Yes,                                    !- Apply Sunday
  Yes,                                    !- Apply Monday
  Yes,                                    !- Apply Tuesday
  Yes,                                    !- Apply Wednesday
  Yes,                                    !- Apply Thursday
  Yes,                                    !- Apply Friday
  Yes,                                    !- Apply Saturday
  DateRange,                              !- Date Specification Type
  1,                                      !- Start Month
  1,                                      !- Start Day
  12,                                     !- End Month
  31;                                     !- End Day

OS:Schedule:Day,
  {a1f0ed87-6d66-4bb3-b586-5477f7d01392}, !- Handle
  heating setpoint day,                   !- Name
  {5d74202a-1ff2-4f06-be52-81d0707fea1b}, !- Schedule Type Limits Name
  ,                                       !- Interpolate to Timestep
  24,                                     !- Hour 1
  0,                                      !- Minute 1
  20;                                     !- Value Until Time 1

OS:Schedule:Ruleset,
  {305f1aa2-9355-485b-9889-a0194398816f}, !- Handle
  cooling setpoint,                       !- Name
  {5d74202a-1ff2-4f06-be52-81d0707fea1b}, !- Schedule Type Limits Name
  {0113b611-34e7-4974-b8d8-6e0756ba523d}; !- Default Day Schedule Name

OS:Schedule:Day,
  {0113b611-34e7-4974-b8d8-6e0756ba523d}, !- Handle
  cooling setpoint default day,           !- Name
  {5d74202a-1ff2-4f06-be52-81d0707fea1b}, !- Schedule Type Limits Name
  ,                                       !- Interpolate to Timestep
  24,                                     !- Hour 1
  0,                                      !- Minute 1
  0;                                      !- Value Until Time 1

OS:Schedule:Rule,
  {4e0a0947-cd88-48b2-b52f-6bc306e94fa0}, !- Handle
  cooling setpoint allday rule,           !- Name
  {305f1aa2-9355-485b-9889-a0194398816f}, !- Schedule Ruleset Name
  0,                                      !- Rule Order
  {9e37f641-d267-4283-9e85-ddeab4f755ac}, !- Day Schedule Name
  Yes,                                    !- Apply Sunday
  Yes,                                    !- Apply Monday
  Yes,                                    !- Apply Tuesday
  Yes,                                    !- Apply Wednesday
  Yes,                                    !- Apply Thursday
  Yes,                                    !- Apply Friday
  Yes,                                    !- Apply Saturday
  DateRange,                              !- Date Specification Type
  1,                                      !- Start Month
  1,                                      !- Start Day
  12,                                     !- End Month
  31;                                     !- End Day

OS:Schedule:Day,
  {9e37f641-d267-4283-9e85-ddeab4f755ac}, !- Handle
  cooling setpoint day,                   !- Name
  {5d74202a-1ff2-4f06-be52-81d0707fea1b}, !- Schedule Type Limits Name
  ,                                       !- Interpolate to Timestep
  24,                                     !- Hour 1
  0,                                      !- Minute 1
  25.5555555555556;                       !- Value Until Time 1

OS:ThermostatSetpoint:DualSetpoint,
  {d1e37b34-dd8c-4ae1-a09c-e2c04b3392d1}, !- Handle
  conditioned space temperature setpoint, !- Name
  {4be0dc1f-19b7-43da-896a-054c20576aec}, !- Heating Setpoint Temperature Schedule Name
  {305f1aa2-9355-485b-9889-a0194398816f}, !- Cooling Setpoint Temperature Schedule Name
  0;                                      !- Temperature Difference Between Cutout And Setpoint {deltaC}

OS:ScheduleTypeLimits,
  {5d74202a-1ff2-4f06-be52-81d0707fea1b}, !- Handle
  Temperature,                            !- Name
  ,                                       !- Lower Limit Value
  ,                                       !- Upper Limit Value
  Continuous,                             !- Numeric Type
  Temperature;                            !- Unit Type

OS:Surface,
  {00fc417b-7538-4782-84e0-7488e152844e}, !- Handle
  Roof1,                                  !- Name
  RoofCeiling,                            !- Surface Type
  {330b12ff-db8a-4c66-8ef2-0bef8e990be4}, !- Construction Name
  {cfd35c21-5ec7-4337-bf4a-18b80ba75371}, !- Space Name
  Outdoors,                               !- Outside Boundary Condition
  ,                                       !- Outside Boundary Condition Object
  SunExposed,                             !- Sun Exposure
  WindExposed,                            !- Wind Exposure
  ,                                       !- View Factor to Ground
  ,                                       !- Number of Vertices
  -5.95628646053898, 5.95628646053898, 3.048, !- X,Y,Z Vertex 1 {m}
  -5.95628646053898, -5.95628646053898, 3.048, !- X,Y,Z Vertex 2 {m}
  5.95628646053898, -5.95628646053898, 3.048, !- X,Y,Z Vertex 3 {m}
  5.95628646053898, 5.95628646053898, 3.048; !- X,Y,Z Vertex 4 {m}

OS:AdditionalProperties,
  {cc6dd4e0-8607-4bf0-ad19-db63804202ca}, !- Handle
  {00fc417b-7538-4782-84e0-7488e152844e}, !- Object Name
  Length,                                 !- Feature Name 1
  Double,                                 !- Feature Data Type 1
  39.083244491725608,                     !- Feature Value 1
  Width,                                  !- Feature Name 2
  Double,                                 !- Feature Data Type 2
  39.083244491725608,                     !- Feature Value 2
  Azimuth,                                !- Feature Name 3
  Integer,                                !- Feature Data Type 3
  0,                                      !- Feature Value 3
  Tilt,                                   !- Feature Name 4
  Double,                                 !- Feature Data Type 4
  0,                                      !- Feature Value 4
  SurfaceType,                            !- Feature Name 5
  String,                                 !- Feature Data Type 5
  Roof;                                   !- Feature Value 5

OS:Material,
  {c3e816c5-a83f-4f08-b424-f9aa54879ba5}, !- Handle
  asphalt or fiberglass shingles,         !- Name
  Rough,                                  !- Roughness
  0.00635,                                !- Thickness {m}
  0.162714,                               !- Conductivity {W/m-K}
  1121.4,                                 !- Density {kg/m3}
  1465.45,                                !- Specific Heat {J/kg-K}
  0.9,                                    !- Thermal Absorptance
  0.85,                                   !- Solar Absorptance
  0.85;                                   !- Visible Absorptance

OS:Material,
  {e3305c7d-36ca-4c7c-8464-b278aa290d7f}, !- Handle
  roof stud and cavity,                   !- Name
  Rough,                                  !- Roughness
  0.0889,                                 !- Thickness {m}
  0.491900632004487,                      !- Conductivity {W/m-K}
  50.32683,                               !- Density {kg/m3}
  1063.80987585548,                       !- Specific Heat {J/kg-K}
  0.9,                                    !- Thermal Absorptance
  0.7,                                    !- Solar Absorptance
  0.7;                                    !- Visible Absorptance

OS:Material,
  {9c7be3e3-4767-4d5a-ba16-6f74f8a9515b}, !- Handle
  gypsum board,                           !- Name
  Rough,                                  !- Roughness
  0.00254,                                !- Thickness {m}
  0.1602906,                              !- Conductivity {W/m-K}
  801,                                    !- Density {kg/m3}
  837.4,                                  !- Specific Heat {J/kg-K}
  0.9,                                    !- Thermal Absorptance
  0.6,                                    !- Solar Absorptance
  0.6;                                    !- Visible Absorptance

OS:Construction,
  {330b12ff-db8a-4c66-8ef2-0bef8e990be4}, !- Handle
  Roof1 construction,                     !- Name
  ,                                       !- Surface Rendering Name
  {c3e816c5-a83f-4f08-b424-f9aa54879ba5}, !- Layer 1
  {e3305c7d-36ca-4c7c-8464-b278aa290d7f}, !- Layer 2
  {9c7be3e3-4767-4d5a-ba16-6f74f8a9515b}; !- Layer 3

OS:Surface,
  {ed809b0e-8091-40bc-b4a1-73ac4f2a91ee}, !- Handle
  Wall1,                                  !- Name
  Wall,                                   !- Surface Type
  {710af009-6beb-4026-b8c9-05291dd7ba95}, !- Construction Name
  {cfd35c21-5ec7-4337-bf4a-18b80ba75371}, !- Space Name
  Outdoors,                               !- Outside Boundary Condition
  ,                                       !- Outside Boundary Condition Object
  SunExposed,                             !- Sun Exposure
  WindExposed,                            !- Wind Exposure
  ,                                       !- View Factor to Ground
  ,                                       !- Number of Vertices
  -3.01645308575712, 5.40745691424288, 0.6096, !- X,Y,Z Vertex 1 {m}
  -3.01645308575712, 5.40745691424288, 5.4864, !- X,Y,Z Vertex 2 {m}
  5.40745691424288, 5.40745691424288, 5.4864, !- X,Y,Z Vertex 3 {m}
  5.40745691424288, 5.40745691424288, 0.6096; !- X,Y,Z Vertex 4 {m}

OS:AdditionalProperties,
  {5cdbb4fe-db46-4b63-abe5-22fe9440d6ba}, !- Handle
  {ed809b0e-8091-40bc-b4a1-73ac4f2a91ee}, !- Object Name
  Length,                                 !- Feature Name 1
  Double,                                 !- Feature Data Type 1
  27.637499999999999,                     !- Feature Value 1
  Azimuth,                                !- Feature Name 2
  Integer,                                !- Feature Data Type 2
  0,                                      !- Feature Value 2
  Tilt,                                   !- Feature Name 3
  Double,                                 !- Feature Data Type 3
  90,                                     !- Feature Value 3
  SurfaceType,                            !- Feature Name 4
  String,                                 !- Feature Data Type 4
  Wall;                                   !- Feature Value 4

OS:Material,
  {bcc1a0a4-5904-43f9-808e-ed097b93bf49}, !- Handle
  wood siding,                            !- Name
  Rough,                                  !- Roughness
  0.0254,                                 !- Thickness {m}
  0.1024175,                              !- Conductivity {W/m-K}
  544.68,                                 !- Density {kg/m3}
  1172.36,                                !- Specific Heat {J/kg-K}
  0.9,                                    !- Thermal Absorptance
  0.7,                                    !- Solar Absorptance
  0.7;                                    !- Visible Absorptance

OS:Material,
  {89a78240-ac22-41a4-93c7-3da3b6740014}, !- Handle
  osb sheathing 0.5 in.,                  !- Name
  Rough,                                  !- Roughness
  0.0127,                                 !- Thickness {m}
  0.1154577,                              !- Conductivity {W/m-K}
  512.64,                                 !- Density {kg/m3}
  1214.23,                                !- Specific Heat {J/kg-K}
  0.9,                                    !- Thermal Absorptance
  0.7,                                    !- Solar Absorptance
  0.7;                                    !- Visible Absorptance

OS:Material,
  {518e18cd-9f3c-4fc5-aebe-bdeb8b5493f1}, !- Handle
  wall stud and cavity,                   !- Name
  Rough,                                  !- Roughness
  0.1397,                                 !- Thickness {m}
  0.0929021674204099,                     !- Conductivity {W/m-K}
  139.0536,                               !- Density {kg/m3}
  1170.23755760369,                       !- Specific Heat {J/kg-K}
  0.9,                                    !- Thermal Absorptance
  0.7,                                    !- Solar Absorptance
  0.7;                                    !- Visible Absorptance

OS:Material,
  {c75ad7ff-940e-4e4e-b74b-78c383d8e071}, !- Handle
  gypsum board 1,                         !- Name
  Rough,                                  !- Roughness
  0.0127,                                 !- Thickness {m}
  0.1602906,                              !- Conductivity {W/m-K}
  801,                                    !- Density {kg/m3}
  837.4,                                  !- Specific Heat {J/kg-K}
  0.9,                                    !- Thermal Absorptance
  0.6,                                    !- Solar Absorptance
  0.6;                                    !- Visible Absorptance

OS:Construction,
  {710af009-6beb-4026-b8c9-05291dd7ba95}, !- Handle
  Wall1 construction,                     !- Name
  ,                                       !- Surface Rendering Name
  {bcc1a0a4-5904-43f9-808e-ed097b93bf49}, !- Layer 1
  {89a78240-ac22-41a4-93c7-3da3b6740014}, !- Layer 2
  {518e18cd-9f3c-4fc5-aebe-bdeb8b5493f1}, !- Layer 3
  {c75ad7ff-940e-4e4e-b74b-78c383d8e071}; !- Layer 4

OS:Surface,
  {016d7f89-a150-4376-ab16-eb463b82b3ab}, !- Handle
  Wall2,                                  !- Name
  Wall,                                   !- Surface Type
  {7efad311-b00e-496f-91e3-ea08abc1be13}, !- Construction Name
  {cfd35c21-5ec7-4337-bf4a-18b80ba75371}, !- Space Name
  Outdoors,                               !- Outside Boundary Condition
  ,                                       !- Outside Boundary Condition Object
  SunExposed,                             !- Sun Exposure
  WindExposed,                            !- Wind Exposure
  ,                                       !- View Factor to Ground
  ,                                       !- Number of Vertices
  5.40745691424288, -1.19550191424288, 0.6096, !- X,Y,Z Vertex 1 {m}
  5.40745691424288, -1.19550191424288, 5.4864, !- X,Y,Z Vertex 2 {m}
  5.40745691424288, -5.40745691424288, 5.4864, !- X,Y,Z Vertex 3 {m}
  5.40745691424288, -5.40745691424288, 0.6096; !- X,Y,Z Vertex 4 {m}

OS:AdditionalProperties,
  {0936753f-85df-4727-8fa7-f4af96faedc5}, !- Handle
  {016d7f89-a150-4376-ab16-eb463b82b3ab}, !- Object Name
  Length,                                 !- Feature Name 1
  Double,                                 !- Feature Data Type 1
  13.81875,                               !- Feature Value 1
  Azimuth,                                !- Feature Name 2