
OS:Version,
  {7c1f3486-837e-4587-b85d-4d15e9c1fd93}, !- Handle
  3.9.0;                                  !- Version Identifier

OS:SimulationControl,
  {c62b0a76-d262-4d06-b29c-b99b717edbee}, !- Handle
  ,                                       !- Do Zone Sizing Calculation
  ,                                       !- Do System Sizing Calculation
  ,                                       !- Do Plant Sizing Calculation
  No;                                     !- Run Simulation for Sizing Periods

OS:Timestep,
  {51a12a32-5d2d-46f9-9fe6-a145f7241bc9}, !- Handle
  1;                                      !- Number of Timesteps per Hour

OS:ShadowCalculation,
  {74d1cc5e-abc4-4242-98d3-c0795e490e2c}, !- Handle
  PolygonClipping,                        !- Shading Calculation Method
  ,                                       !- Shading Calculation Update Frequency Method
  20,                                     !- Shading Calculation Update Frequency
  200,                                    !- Maximum Figures in Shadow Overlap Calculations
  ,                                       !- Polygon Clipping Algorithm
  512,                                    !- Pixel Counting Resolution
  ,                                       !- Sky Diffuse Modeling Algorithm
  No,                                     !- Output External Shading Calculation Results
  No,                                     !- Disable Self-Shading Within Shading Zone Groups
  No;                                     !- Disable Self-Shading From Shading Zone Groups to Other Zones

OS:SurfaceConvectionAlgorithm:Outside,
  {daee6e58-8646-4a7e-b160-6399a19fdc2b}, !- Handle
  DOE-2;                                  !- Algorithm

OS:SurfaceConvectionAlgorithm:Inside,
  {4e9ca2b4-ab16-425c-8344-b0dfa1fcc496}, !- Handle
  TARP;                                   !- Algorithm

OS:ZoneCapacitanceMultiplier:ResearchSpecial,
  {1d778528-f7ef-458b-a7c2-d5402e4e6b52}, !- Handle
  7,                                      !- Temperature Capacity Multiplier
  15,                                     !- Humidity Capacity Multiplier
  ;                                       !- Carbon Dioxide Capacity Multiplier

OS:ConvergenceLimits,
  {487647da-54ad-43c7-b95b-62aac546b0f4}, !- Handle
  0;                                      !- Minimum System Timestep {minutes}

OS:RunPeriod,
  {131c823b-c6e2-4c03-9bc8-eb29503cc2e5}, !- Handle
  Run Period 1,                           !- Name
  1,                                      !- Begin Month
  1,                                      !- Begin Day of Month
  12,                                     !- End Month
  31,                                     !- End Day of Month
  ,                                       !- Use Weather File Holidays and Special Days
  ,                                       !- Use Weather File Daylight Saving Period
  ,                                       !- Apply Weekend Holiday Rule
  ,                                       !- Use Weather File Rain Indicators
  ,                                       !- Use Weather File Snow Indicators
  ;                                       !- Number of Times Runperiod to be Repeated

OS:PerformancePrecisionTradeoffs,
  {4d9d6747-4d19-49f7-8c58-e940c5262208}, !- Handle
  ,                                       !- Use Coil Direct Solutions
  CarrollMRT;                             !- Zone Radiant Exchange Algorithm

OS:WeatherFile,
  {2fec61a4-e2d8-426c-bb64-a56623b0a095}, !- Handle
  Buffalo Niagara Intl Ap,                !- City
  NY,                                     !- State Province Region
  USA,                                    !- Country
  TMY3,                                   !- Data Source
  725280,                                 !- WMO Number
  42.93,                                  !- Latitude {deg}
  -78.73,                                 !- Longitude {deg}
  -5,                                     !- Time Zone {hr}
  215,                                    !- Elevation {m}
  /Users/nmoore/github/urbanopt-example-geojson-project/example_project/weather/USA_NY_Buffalo-Greater.Buffalo.Intl.AP.725280_TMY3.epw, !- Url
  6B50E0FF,                               !- Checksum
  ,                                       !- Start Date Actual Year
  Sunday;                                 !- Start Day of Week

OS:YearDescription,
  {3b20d187-c833-470e-a789-6ef2d9377786}, !- Handle
  2007,                                   !- Calendar Year
  ,                                       !- Day of Week for Start Day
  ;                                       !- Is Leap Year

OS:Site,
  {c8b4afd7-4e74-4629-886b-ac7e3eec3c24}, !- Handle
  Buffalo Niagara Intl Ap_NY,             !- Name
  42.93,                                  !- Latitude {deg}
  -78.73,                                 !- Longitude {deg}
  -5,                                     !- Time Zone {hr}
  215,                                    !- Elevation {m}
  Suburbs,                                !- Terrain
  Yes;                                    !- Keep Site Location Information

OS:RunPeriodControl:DaylightSavingTime,
  {b95ebfde-76fe-4309-97a8-d232f952ea52}, !- Handle
  Mar 12,                                 !- Start Date
  Nov 5;                                  !- End Date

OS:Site:GroundTemperature:Shallow,
  {8e79e7fd-699e-4cdc-890c-f7484eabfb31}, !- Handle
  4.30207395723828,                       !- January Surface Ground Temperature {C}
  2.29327249652502,                       !- February Surface Ground Temperature {C}
  2.13240047156047,                       !- March Surface Ground Temperature {C}
  3.08567940719286,                       !- April Surface Ground Temperature {C}
  6.91256312497526,                       !- May Surface Ground Temperature {C}
  10.7216195949507,                       !- June Surface Ground Temperature {C}
  14.0238679822574,                       !- July Surface Ground Temperature {C}
  16.1157611184724,                       !- August Surface Ground Temperature {C}
  16.2934789303462,                       !- September Surface Ground Temperature {C}
  14.5920754632847,                       !- October Surface Ground Temperature {C}
  11.374036348653,                        !- November Surface Ground Temperature {C}
  7.68182621661674;                       !- December Surface Ground Temperature {C}

OS:ThermalZone,
  {4aefedad-393c-418b-bd27-282496247f88}, !- Handle
  conditioned space,                      !- Name
  1,                                      !- Multiplier
  ,                                       !- Ceiling Height {m}
  346.03186535424,                        !- Volume {m3}
  ,                                       !- Floor Area {m2}
  ,                                       !- Zone Inside Convection Algorithm
  ,                                       !- Zone Outside Convection Algorithm
  ,                                       !- Zone Conditioning Equipment List Name
  {48a82630-6f6b-43f7-9728-0b9481d2fd81}, !- Zone Air Inlet Port List
  {bfc02f41-56e4-4cd4-a886-c9d478771228}, !- Zone Air Exhaust Port List
  {b011acd8-97d2-4edf-aeb4-6d9b53186b15}, !- Zone Air Node Name
  {bd249ff4-b3b4-407f-99a8-d579399a1152}, !- Zone Return Air Port List
  ,                                       !- Primary Daylighting Control Name
  ,                                       !- Fraction of Zone Controlled by Primary Daylighting Control
  ,                                       !- Secondary Daylighting Control Name
  ,                                       !- Fraction of Zone Controlled by Secondary Daylighting Control
  ,                                       !- Illuminance Map Name
  ,                                       !- Group Rendering Name
  {20049f77-6f3e-4c58-99f5-fe45998e8b23}, !- Thermostat Name
  No;                                     !- Use Ideal Air Loads

OS:Node,
  {559339a3-06f0-473e-9250-b1d582da96ee}, !- Handle
  Node 1,                                 !- Name
  {b011acd8-97d2-4edf-aeb4-6d9b53186b15}, !- Inlet Port
  ;                                       !- Outlet Port

OS:Connection,
  {b011acd8-97d2-4edf-aeb4-6d9b53186b15}, !- Handle
  {4aefedad-393c-418b-bd27-282496247f88}, !- Source Object
  11,                                     !- Outlet Port
  {559339a3-06f0-473e-9250-b1d582da96ee}, !- Target Object
  2;                                      !- Inlet Port

OS:PortList,
  {48a82630-6f6b-43f7-9728-0b9481d2fd81}, !- Handle
  {4aefedad-393c-418b-bd27-282496247f88}, !- HVAC Component
  {c14136a5-9605-422a-97a5-fac94bf9d29f}; !- Port 1

OS:PortList,
  {bfc02f41-56e4-4cd4-a886-c9d478771228}, !- Handle
  {4aefedad-393c-418b-bd27-282496247f88}; !- HVAC Component

OS:PortList,
  {bd249ff4-b3b4-407f-99a8-d579399a1152}, !- Handle
  {4aefedad-393c-418b-bd27-282496247f88}, !- HVAC Component
  {f1eff4e9-380e-43b4-8259-ea78948083cf}; !- Port 1

OS:Sizing:Zone,
  {28071d2b-98ed-4405-bb68-a870f300010a}, !- Handle
  {4aefedad-393c-418b-bd27-282496247f88}, !- Zone or ZoneList Name
  SupplyAirTemperature,                   !- Zone Cooling Design Supply Air Temperature Input Method
  14,                                     !- Zone Cooling Design Supply Air Temperature {C}
  11.11,                                  !- Zone Cooling Design Supply Air Temperature Difference {deltaC}
  SupplyAirTemperature,                   !- Zone Heating Design Supply Air Temperature Input Method
  40,                                     !- Zone Heating Design Supply Air Temperature {C}
  11.11,                                  !- Zone Heating Design Supply Air Temperature Difference {deltaC}
  0.0085,                                 !- Zone Cooling Design Supply Air Humidity Ratio {kg-H2O/kg-air}
  0.008,                                  !- Zone Heating Design Supply Air Humidity Ratio {kg-H2O/kg-air}
  ,                                       !- Zone Heating Sizing Factor
  ,                                       !- Zone Cooling Sizing Factor
  DesignDay,                              !- Cooling Design Air Flow Method
  ,                                       !- Cooling Design Air Flow Rate {m3/s}
  ,                                       !- Cooling Minimum Air Flow per Zone Floor Area {m3/s-m2}
  ,                                       !- Cooling Minimum Air Flow {m3/s}
  ,                                       !- Cooling Minimum Air Flow Fraction
  DesignDay,                              !- Heating Design Air Flow Method
  ,                                       !- Heating Design Air Flow Rate {m3/s}
  ,                                       !- Heating Maximum Air Flow per Zone Floor Area {m3/s-m2}
  ,                                       !- Heating Maximum Air Flow {m3/s}
  ,                                       !- Heating Maximum Air Flow Fraction
  No,                                     !- Account for Dedicated Outdoor Air System
  NeutralSupplyAir,                       !- Dedicated Outdoor Air System Control Strategy
  autosize,                               !- Dedicated Outdoor Air Low Setpoint Temperature for Design {C}
  autosize,                               !- Dedicated Outdoor Air High Setpoint Temperature for Design {C}
  Sensible Load Only No Latent Load,      !- Zone Load Sizing Method
  HumidityRatioDifference,                !- Zone Latent Cooling Design Supply Air Humidity Ratio Input Method
  ,                                       !- Zone Dehumidification Design Supply Air Humidity Ratio {kgWater/kgDryAir}
  0.005,                                  !- Zone Cooling Design Supply Air Humidity Ratio Difference {kgWater/kgDryAir}
  HumidityRatioDifference,                !- Zone Latent Heating Design Supply Air Humidity Ratio Input Method
  ,                                       !- Zone Humidification Design Supply Air Humidity Ratio {kgWater/kgDryAir}
  0.005,                                  !- Zone Humidification Design Supply Air Humidity Ratio Difference {kgWater/kgDryAir}
  ,                                       !- Zone Humidistat Dehumidification Set Point Schedule Name
  ,                                       !- Zone Humidistat Humidification Set Point Schedule Name
  ,                                       !- Design Zone Air Distribution Effectiveness in Cooling Mode
  ,                                       !- Design Zone Air Distribution Effectiveness in Heating Mode
  ,                                       !- Design Zone Secondary Recirculation Fraction {dimensionless}
  ,                                       !- Design Minimum Zone Ventilation Efficiency {dimensionless}
  Coincident;                             !- Sizing Option

OS:ZoneHVAC:EquipmentList,
  {99c48524-8561-4896-96b4-f7ba67b53ef8}, !- Handle
  Zone HVAC Equipment List 1,             !- Name
  {4aefedad-393c-418b-bd27-282496247f88}, !- Thermal Zone
  ,                                       !- Load Distribution Scheme
  {d6a4cfae-d78a-4e63-b525-b7794e4e1e5b}, !- Zone Equipment 1
  1,                                      !- Zone Equipment Cooling Sequence 1
  1,                                      !- Zone Equipment Heating or No-Load Sequence 1
  {a3e1383e-9d34-4cb4-b10e-cfcb00e83156}, !- Zone Equipment Sequential Cooling Fraction Schedule Name 1
  {1da5ef76-fcd5-4d8a-bed8-01a7048f3738}; !- Zone Equipment Sequential Heating Fraction Schedule Name 1

OS:AdditionalProperties,
  {a1046602-e386-4046-be5b-a395ac04b44d}, !- Handle
  {4aefedad-393c-418b-bd27-282496247f88}, !- Object Name
  ObjectType,                             !- Feature Name 1
  String,                                 !- Feature Data Type 1
  conditioned space;                      !- Feature Value 1

OS:Space,
  {f4f7da0e-b515-4a52-9683-d19a307e8ec1}, !- Handle
  conditioned space 1,                    !- Name
  ,                                       !- Space Type Name
  ,                                       !- Default Construction Set Name
  ,                                       !- Default Schedule Set Name
  ,                                       !- Direction of Relative North {deg}
  ,                                       !- X Origin {m}
  ,                                       !- Y Origin {m}
  ,                                       !- Z Origin {m}
  ,                                       !- Building Story Name
  {4aefedad-393c-418b-bd27-282496247f88}, !- Thermal Zone Name
  ,                                       !- Part of Total Floor Area
  ,                                       !- Design Specification Outdoor Air Object Name
  ,                                       !- Building Unit Name
  346.03186535424;                        !- Volume {m3}

OS:Schedule:Ruleset,
  {cc10baa0-476f-40fa-93a2-ae5b4798380a}, !- Handle
  heating setpoint,                       !- Name
  {1e4b0b12-7186-4616-82e1-0252eca3294b}, !- Schedule Type Limits Name
  {5f486fac-dce8-41ae-964c-9e1c56bd8f0d}; !- Default Day Schedule Name

OS:Schedule:Day,
  {5f486fac-dce8-41ae-964c-9e1c56bd8f0d}, !- Handle
  heating setpoint default day,           !- Name
  {1e4b0b12-7186-4616-82e1-0252eca3294b}, !- Schedule Type Limits Name
  ,                                       !- Interpolate to Timestep
  24,                                     !- Hour 1
  0,                                      !- Minute 1
  0;                                      !- Value Until Time 1

OS:Schedule:Rule,
  {bdaabd87-4541-4767-a64b-4cb2c146c44e}, !- Handle
  heating setpoint allday rule,           !- Name
  {cc10baa0-476f-40fa-93a2-ae5b4798380a}, !- Schedule Ruleset Name
  0,                                      !- Rule Order
  {d9052ca3-8b71-4c5e-9228-4d581fe27727}, !- Day Schedule Name
  Yes,                                    !- Apply Sunday
  Yes,                                    !- Apply Monday
  Yes,                                    !- Apply Tuesday
  Yes,                                    !- Apply Wednesday
  Yes,                                    !- Apply Thursday
  Yes,                                    !- Apply Friday
  Yes,                                    !- Apply Saturday
  DateRange,                              !- Date Specification Type
  1,                                      !- Start Month
  1,                                      !- Start Day
  12,                                     !- End Month
  31;                                     !- End Day

OS:Schedule:Day,
  {d9052ca3-8b71-4c5e-9228-4d581fe27727}, !- Handle
  heating setpoint day,                   !- Name
  {1e4b0b12-7186-4616-82e1-0252eca3294b}, !- Schedule Type Limits Name
  ,                                       !- Interpolate to Timestep
  24,                                     !- Hour 1
  0,                                      !- Minute 1
  20;                                     !- Value Until Time 1

OS:Schedule:Ruleset,
  {322975c5-68f4-41a6-a320-e4aa3fc5ba96}, !- Handle
  cooling setpoint,                       !- Name
  {1e4b0b12-7186-4616-82e1-0252eca3294b}, !- Schedule Type Limits Name
  {545cc62b-9cfe-4056-a308-8198ccf44272}; !- Default Day Schedule Name

OS:Schedule:Day,
  {545cc62b-9cfe-4056-a308-8198ccf44272}, !- Handle
  cooling setpoint default day,           !- Name
  {1e4b0b12-7186-4616-82e1-0252eca3294b}, !- Schedule Type Limits Name
  ,                                       !- Interpolate to Timestep
  24,                                     !- Hour 1
  0,                                      !- Minute 1
  0;                                      !- Value Until Time 1

OS:Schedule:Rule,
  {6e84cf09-5ffe-4638-add3-c057700bef7b}, !- Handle
  cooling setpoint allday rule,           !- Name
  {322975c5-68f4-41a6-a320-e4aa3fc5ba96}, !- Schedule Ruleset Name
  0,                                      !- Rule Order
  {cf1e71c4-10b9-4ef8-be1a-9c4a8fe9fc52}, !- Day Schedule Name
  Yes,                                    !- Apply Sunday
  Yes,                                    !- Apply Monday
  Yes,                                    !- Apply Tuesday
  Yes,                                    !- Apply Wednesday
  Yes,                                    !- Apply Thursday
  Yes,                                    !- Apply Friday
  Yes,                                    !- Apply Saturday
  DateRange,                              !- Date Specification Type
  1,                                      !- Start Month
  1,                                      !- Start Day
  12,                                     !- End Month
  31;                                     !- End Day

OS:Schedule:Day,
  {cf1e71c4-10b9-4ef8-be1a-9c4a8fe9fc52}, !- Handle
  cooling setpoint day,                   !- Name
  {1e4b0b12-7186-4616-82e1-0252eca3294b}, !- Schedule Type Limits Name
  ,                                       !- Interpolate to Timestep
  24,                                     !- Hour 1
  0,                                      !- Minute 1
  25.5555555555556;                       !- Value Until Time 1

OS:ThermostatSetpoint:DualSetpoint,
  {20049f77-6f3e-4c58-99f5-fe45998e8b23}, !- Handle
  conditioned space temperature setpoint, !- Name
  {cc10baa0-476f-40fa-93a2-ae5b4798380a}, !- Heating Setpoint Temperature Schedule Name
  {322975c5-68f4-41a6-a320-e4aa3fc5ba96}, !- Cooling Setpoint Temperature Schedule Name
  0;                                      !- Temperature Difference Between Cutout And Setpoint {deltaC}

OS:ScheduleTypeLimits,
  {1e4b0b12-7186-4616-82e1-0252eca3294b}, !- Handle
  Temperature,                            !- Name
  ,                                       !- Lower Limit Value
  ,                                       !- Upper Limit Value
  Continuous,                             !- Numeric Type
  Temperature;                            !- Unit Type

OS:Surface,
  {9397f03c-924c-4586-bf1b-72dfe5986064}, !- Handle
  Roof1,                                  !- Name
  RoofCeiling,                            !- Surface Type
  {8be997dd-83f1-4346-b600-7e22c0e714e7}, !- Construction Name
  {f4f7da0e-b515-4a52-9683-d19a307e8ec1}, !- Space Name
  Outdoors,                               !- Outside Boundary Condition
  ,                                       !- Outside Boundary Condition Object
  SunExposed,                             !- Sun Exposure
  WindExposed,                            !- Wind Exposure
  ,                                       !- View Factor to Ground
  ,                                       !- Number of Vertices
  -5.95628646053898, 5.95628646053898, 3.048, !- X,Y,Z Vertex 1 {m}
  -5.95628646053898, -5.95628646053898, 3.048, !- X,Y,Z Vertex 2 {m}
  5.95628646053898, -5.95628646053898, 3.048, !- X,Y,Z Vertex 3 {m}
  5.95628646053898, 5.95628646053898, 3.048; !- X,Y,Z Vertex 4 {m}

OS:AdditionalProperties,
  {e1a85d9e-02b2-448f-828c-8470f25ac3a5}, !- Handle
  {9397f03c-924c-4586-bf1b-72dfe5986064}, !- Object Name
  Length,                                 !- Feature Name 1
  Double,                                 !- Feature Data Type 1
  39.083244491725608,                     !- Feature Value 1
  Width,                                  !- Feature Name 2
  Double,                                 !- Feature Data Type 2
  39.083244491725608,                     !- Feature Value 2
  Azimuth,                                !- Feature Name 3
  Integer,                                !- Feature Data Type 3
  0,                                      !- Feature Value 3
  Tilt,                                   !- Feature Name 4
  Double,                                 !- Feature Data Type 4
  0,                                      !- Feature Value 4
  SurfaceType,                            !- Feature Name 5
  String,                                 !- Feature Data Type 5
  Roof;                                   !- Feature Value 5

OS:Material,
  {8fcf7071-7d1a-452b-9a62-acc4396bc104}, !- Handle
  asphalt or fiberglass shingles,         !- Name
  Rough,                                  !- Roughness
  0.00635,                                !- Thickness {m}
  0.162714,                               !- Conductivity {W/m-K}
  1121.4,                                 !- Density {kg/m3}
  1465.45,                                !- Specific Heat {J/kg-K}
  0.9,                                    !- Thermal Absorptance
  0.85,                                   !- Solar Absorptance
  0.85;                                   !- Visible Absorptance

OS:Material,
  {86140d31-5504-4c8c-8947-03ab0f905734}, !- Handle
  roof stud and cavity,                   !- Name
  Rough,                                  !- Roughness
  0.0889,                                 !- Thickness {m}
  0.491900632004487,                      !- Conductivity {W/m-K}
  50.32683,                               !- Density {kg/m3}
  1063.80987585548,                       !- Specific Heat {J/kg-K}
  0.9,                                    !- Thermal Absorptance
  0.7,                                    !- Solar Absorptance
  0.7;                                    !- Visible Absorptance

OS:Material,
  {90844080-c816-42c3-93ce-b2ff3401b7ce}, !- Handle
  gypsum board,                           !- Name
  Rough,                                  !- Roughness
  0.00254,                                !- Thickness {m}
  0.1602906,                              !- Conductivity {W/m-K}
  801,                                    !- Density {kg/m3}
  837.4,                                  !- Specific Heat {J/kg-K}
  0.9,                                    !- Thermal Absorptance
  0.6,                                    !- Solar Absorptance
  0.6;                                    !- Visible Absorptance

OS:Construction,
  {8be997dd-83f1-4346-b600-7e22c0e714e7}, !- Handle
  Roof1 construction,                     !- Name
  ,                                       !- Surface Rendering Name
  {8fcf7071-7d1a-452b-9a62-acc4396bc104}, !- Layer 1
  {86140d31-5504-4c8c-8947-03ab0f905734}, !- Layer 2
  {90844080-c816-42c3-93ce-b2ff3401b7ce}; !- Layer 3

OS:Surface,
  {7a82a3a0-58f0-4e8c-acb4-7baa15a74310}, !- Handle
  Wall1,                                  !- Name
  Wall,                                   !- Surface Type
  {453534d0-afab-4f7e-bf0c-ba7faac52909}, !- Construction Name
  {f4f7da0e-b515-4a52-9683-d19a307e8ec1}, !- Space Name
  Outdoors,                               !- Outside Boundary Condition
  ,                                       !- Outside Boundary Condition Object
  SunExposed,                             !- Sun Exposure
  WindExposed,                            !- Wind Exposure
  ,                                       !- View Factor to Ground
  ,                                       !- Number of Vertices
  -3.01645308575712, 5.40745691424288, 0.6096, !- X,Y,Z Vertex 1 {m}
  -3.01645308575712, 5.40745691424288, 5.4864, !- X,Y,Z Vertex 2 {m}
  5.40745691424288, 5.40745691424288, 5.4864, !- X,Y,Z Vertex 3 {m}
  5.40745691424288, 5.40745691424288, 0.6096; !- X,Y,Z Vertex 4 {m}

OS:AdditionalProperties,
  {d712f44a-cf2d-409a-b4b3-b15df2ccee2d}, !- Handle
  {7a82a3a0-58f0-4e8c-acb4-7baa15a74310}, !- Object Name
  Length,                                 !- Feature Name 1
  Double,                                 !- Feature Data Type 1
  27.637499999999999,                     !- Feature Value 1
  Azimuth,                                !- Feature Name 2
  Integer,                                !- Feature Data Type 2
  0,                                      !- Feature Value 2
  Tilt,                                   !- Feature Name 3
  Double,                                 !- Feature Data Type 3
  90,                                     !- Feature Value 3
  SurfaceType,                            !- Feature Name 4
  String,                                 !- Feature Data Type 4
  Wall;                                   !- Feature Value 4

OS:Material,
  {3d5be187-60e3-45cf-9069-9462da227a46}, !- Handle
  wood siding,                            !- Name
  Rough,                                  !- Roughness
  0.0254,                                 !- Thickness {m}
  0.1024175,                              !- Conductivity {W/m-K}
  544.68,                                 !- Density {kg/m3}
  1172.36,                                !- Specific Heat {J/kg-K}
  0.9,                                    !- Thermal Absorptance
  0.7,                                    !- Solar Absorptance
  0.7;                                    !- Visible Absorptance

OS:Material,
  {46399a61-6574-4d5d-824f-5ddc391ac98b}, !- Handle
  osb sheathing 0.5 in.,                  !- Name
  Rough,                                  !- Roughness
  0.0127,                                 !- Thickness {m}
  0.1154577,                              !- Conductivity {W/m-K}
  512.64,                                 !- Density {kg/m3}
  1214.23,                                !- Specific Heat {J/kg-K}
  0.9,                                    !- Thermal Absorptance
  0.7,                                    !- Solar Absorptance
  0.7;                                    !- Visible Absorptance

OS:Material,
  {d8c28c21-1f63-4517-a0bd-2bb3ebf24cc1}, !- Handle
  wall stud and cavity,                   !- Name
  Rough,                                  !- Roughness
  0.1397,                                 !- Thickness {m}
  0.0929021674204099,                     !- Conductivity {W/m-K}
  139.0536,                               !- Density {kg/m3}
  1170.23755760369,                       !- Specific Heat {J/kg-K}
  0.9,                                    !- Thermal Absorptance
  0.7,                                    !- Solar Absorptance
  0.7;                                    !- Visible Absorptance

OS:Material,
  {ffd6eea4-d6c9-457e-bccf-790f9052e217}, !- Handle
  gypsum board 1,                         !- Name
  Rough,                                  !- Roughness
  0.0127,                                 !- Thickness {m}
  0.1602906,                              !- Conductivity {W/m-K}
  801,                                    !- Density {kg/m3}
  837.4,                                  !- Specific Heat {J/kg-K}
  0.9,                                    !- Thermal Absorptance
  0.6,                                    !- Solar Absorptance
  0.6;                                    !- Visible Absorptance

OS:Construction,
  {453534d0-afab-4f7e-bf0c-ba7faac52909}, !- Handle
  Wall1 construction,                     !- Name
  ,                                       !- Surface Rendering Name
  {3d5be187-60e3-45cf-9069-9462da227a46}, !- Layer 1
  {46399a61-6574-4d5d-824f-5ddc391ac98b}, !- Layer 2
  {d8c28c21-1f63-4517-a0bd-2bb3ebf24cc1}, !- Layer 3
  {ffd6eea4-d6c9-457e-bccf-790f9052e217}; !- Layer 4

OS:Surface,
  {506d6e73-8357-42b6-9801-4cc2d2c50d39}, !- Handle
  Wall2,                                  !- Name
  Wall,                                   !- Surface Type
  {2a936c35-6234-4569-8d86-507631ed4666}, !- Construction Name
  {f4f7da0e-b515-4a52-9683-d19a307e8ec1}, !- Space Name
  Outdoors,                               !- Outside Boundary Condition
  ,                                       !- Outside Boundary Condition Object
  SunExposed,                             !- Sun Exposure
  WindExposed,                            !- Wind Exposure
  ,                                       !- View Factor to Ground
  ,                                       !- Number of Vertices
  5.40745691424288, -1.19550191424288, 0.6096, !- X,Y,Z Vertex 1 {m}
  5.40745691424288, -1.19550191424288, 5.4864, !- X,Y,Z Vertex 2 {m}
  5.40745691424288, -5.40745691424288, 5.4864, !- X,Y,Z Vertex 3 {m}
  5.40745691424288, -5.40745691424288, 0.6096; !- X,Y,Z Vertex 4 {m}

OS:AdditionalProperties,
  {7205d5b9-1455-4db6-bfe0-4c24402f572e}, !- Handle
  {506d6e73-8357-42b6-9801-4cc2d2c50d39}, !- Object Name
  Length,                                 !- Feature Name 1
  Double,                                 !- Feature Data Type 1
  13.81875,                               !- Feature Value 1
  Azimuth,                                !- Feature Name 2