
OS:Version,
  {6a76677b-b220-4dcd-8384-1a2e3f307634}, !- Handle
  3.9.0;                                  !- Version Identifier

OS:SimulationControl,
  {0387db66-e28c-4b60-99bd-cfdd99d44d5f}, !- Handle
  ,                                       !- Do Zone Sizing Calculation
  ,                                       !- Do System Sizing Calculation
  ,                                       !- Do Plant Sizing Calculation
  No;                                     !- Run Simulation for Sizing Periods

OS:Timestep,
  {076fd044-1014-4a15-8c9c-1d4743a67db6}, !- Handle
  1;                                      !- Number of Timesteps per Hour

OS:ShadowCalculation,
  {fa48fa80-bcad-4d45-a1ae-86ec78a2036f}, !- Handle
  PolygonClipping,                        !- Shading Calculation Method
  ,                                       !- Shading Calculation Update Frequency Method
  20,                                     !- Shading Calculation Update Frequency
  200,                                    !- Maximum Figures in Shadow Overlap Calculations
  ,                                       !- Polygon Clipping Algorithm
  512,                                    !- Pixel Counting Resolution
  ,                                       !- Sky Diffuse Modeling Algorithm
  No,                                     !- Output External Shading Calculation Results
  No,                                     !- Disable Self-Shading Within Shading Zone Groups
  No;                                     !- Disable Self-Shading From Shading Zone Groups to Other Zones

OS:SurfaceConvectionAlgorithm:Outside,
  {399944a9-2115-4e19-a300-e4ccab5e026a}, !- Handle
  DOE-2;                                  !- Algorithm

OS:SurfaceConvectionAlgorithm:Inside,
  {606469c4-1834-48fe-8634-f6645b16cda1}, !- Handle
  TARP;                                   !- Algorithm

OS:ZoneCapacitanceMultiplier:ResearchSpecial,
  {0c1df0bf-d9e3-441e-be8f-ca4a83c6ada0}, !- Handle
  7,                                      !- Temperature Capacity Multiplier
  15,                                     !- Humidity Capacity Multiplier
  ;                                       !- Carbon Dioxide Capacity Multiplier

OS:ConvergenceLimits,
  {755bc169-a595-408e-b51e-03b7ee64c385}, !- Handle
  0;                                      !- Minimum System Timestep {minutes}

OS:RunPeriod,
  {399310d2-614b-4f43-b9cc-a73c962a8c40}, !- Handle
  Run Period 1,                           !- Name
  1,                                      !- Begin Month
  1,                                      !- Begin Day of Month
  12,                                     !- End Month
  31,                                     !- End Day of Month
  ,                                       !- Use Weather File Holidays and Special Days
  ,                                       !- Use Weather File Daylight Saving Period
  ,                                       !- Apply Weekend Holiday Rule
  ,                                       !- Use Weather File Rain Indicators
  ,                                       !- Use Weather File Snow Indicators
  ;                                       !- Number of Times Runperiod to be Repeated

OS:PerformancePrecisionTradeoffs,
  {f28a4233-fdba-46d6-b5b8-3ef8f6b83032}, !- Handle
  ,                                       !- Use Coil Direct Solutions
  CarrollMRT;                             !- Zone Radiant Exchange Algorithm

OS:WeatherFile,
  {086dfbe1-e73f-4d03-a989-ede8497b7c5a}, !- Handle
  Buffalo Niagara Intl Ap,                !- City
  NY,                                     !- State Province Region
  USA,                                    !- Country
  TMY3,                                   !- Data Source
  725280,                                 !- WMO Number
  42.93,                                  !- Latitude {deg}
  -78.73,                                 !- Longitude {deg}
  -5,                                     !- Time Zone {hr}
  215,                                    !- Elevation {m}
  /Users/nmoore/github/urbanopt-example-geojson-project/example_project/weather/USA_NY_Buffalo-Greater.Buffalo.Intl.AP.725280_TMY3.epw, !- Url
  6B50E0FF,                               !- Checksum
  ,                                       !- Start Date Actual Year
  Sunday;                                 !- Start Day of Week

OS:YearDescription,
  {92dfdf09-0985-46b5-b3f0-72201b9d7a18}, !- Handle
  2007,                                   !- Calendar Year
  ,                                       !- Day of Week for Start Day
  ;                                       !- Is Leap Year

OS:Site,
  {2aa42d1a-b34a-4f77-b74a-d73935b42fea}, !- Handle
  Buffalo Niagara Intl Ap_NY,             !- Name
  42.93,                                  !- Latitude {deg}
  -78.73,                                 !- Longitude {deg}
  -5,                                     !- Time Zone {hr}
  215,                                    !- Elevation {m}
  Suburbs,                                !- Terrain
  Yes;                                    !- Keep Site Location Information

OS:RunPeriodControl:DaylightSavingTime,
  {5afa4235-97ff-4a2b-aed8-c0c59c04b42f}, !- Handle
  Mar 12,                                 !- Start Date
  Nov 5;                                  !- End Date

OS:Site:GroundTemperature:Shallow,
  {c16c4acb-e6f8-40c6-a658-a0f0f1c1ae4d}, !- Handle
  4.30207395723828,                       !- January Surface Ground Temperature {C}
  2.29327249652502,                       !- February Surface Ground Temperature {C}
  2.13240047156047,                       !- March Surface Ground Temperature {C}
  3.08567940719286,                       !- April Surface Ground Temperature {C}
  6.91256312497526,                       !- May Surface Ground Temperature {C}
  10.7216195949507,                       !- June Surface Ground Temperature {C}
  14.0238679822574,                       !- July Surface Ground Temperature {C}
  16.1157611184724,                       !- August Surface Ground Temperature {C}
  16.2934789303462,                       !- September Surface Ground Temperature {C}
  14.5920754632847,                       !- October Surface Ground Temperature {C}
  11.374036348653,                        !- November Surface Ground Temperature {C}
  7.68182621661674;                       !- December Surface Ground Temperature {C}

OS:ThermalZone,
  {7bbefe04-5733-4334-be1d-862160488bb5}, !- Handle
  conditioned space,                      !- Name
  1,                                      !- Multiplier
  ,                                       !- Ceiling Height {m}
  692.06373070848,                        !- Volume {m3}
  ,                                       !- Floor Area {m2}
  ,                                       !- Zone Inside Convection Algorithm
  ,                                       !- Zone Outside Convection Algorithm
  ,                                       !- Zone Conditioning Equipment List Name
  {1ba068b1-4536-4572-b2ae-56e5293b7962}, !- Zone Air Inlet Port List
  {e7637a71-bcbe-4d72-97ba-c56134ec96dd}, !- Zone Air Exhaust Port List
  {a3d3a0c8-909d-4de7-86c8-0cd2d7ce4336}, !- Zone Air Node Name
  {8614a3eb-5793-4bd3-93ba-a163f2e3e0bc}, !- Zone Return Air Port List
  ,                                       !- Primary Daylighting Control Name
  ,                                       !- Fraction of Zone Controlled by Primary Daylighting Control
  ,                                       !- Secondary Daylighting Control Name
  ,                                       !- Fraction of Zone Controlled by Secondary Daylighting Control
  ,                                       !- Illuminance Map Name
  ,                                       !- Group Rendering Name
  {3f8bf7f8-308f-458f-896f-14c0d221ed07}, !- Thermostat Name
  No;                                     !- Use Ideal Air Loads

OS:Node,
  {09491fb4-0d74-45e2-ba05-5f357da298ab}, !- Handle
  Node 1,                                 !- Name
  {a3d3a0c8-909d-4de7-86c8-0cd2d7ce4336}, !- Inlet Port
  ;                                       !- Outlet Port

OS:Connection,
  {a3d3a0c8-909d-4de7-86c8-0cd2d7ce4336}, !- Handle
  {7bbefe04-5733-4334-be1d-862160488bb5}, !- Source Object
  11,                                     !- Outlet Port
  {09491fb4-0d74-45e2-ba05-5f357da298ab}, !- Target Object
  2;                                      !- Inlet Port

OS:PortList,
  {1ba068b1-4536-4572-b2ae-56e5293b7962}, !- Handle
  {7bbefe04-5733-4334-be1d-862160488bb5}, !- HVAC Component
  {4e4f7b34-88dd-4120-9d6e-f83fc65c6ec7}; !- Port 1

OS:PortList,
  {e7637a71-bcbe-4d72-97ba-c56134ec96dd}, !- Handle
  {7bbefe04-5733-4334-be1d-862160488bb5}; !- HVAC Component

OS:PortList,
  {8614a3eb-5793-4bd3-93ba-a163f2e3e0bc}, !- Handle
  {7bbefe04-5733-4334-be1d-862160488bb5}, !- HVAC Component
  {7a7ccf86-7002-4b02-af11-140176b499bc}; !- Port 1

OS:Sizing:Zone,
  {cc3633b9-9a40-407a-9222-d9d8715129a4}, !- Handle
  {7bbefe04-5733-4334-be1d-862160488bb5}, !- Zone or ZoneList Name
  SupplyAirTemperature,                   !- Zone Cooling Design Supply Air Temperature Input Method
  14,                                     !- Zone Cooling Design Supply Air Temperature {C}
  11.11,                                  !- Zone Cooling Design Supply Air Temperature Difference {deltaC}
  SupplyAirTemperature,                   !- Zone Heating Design Supply Air Temperature Input Method
  40,                                     !- Zone Heating Design Supply Air Temperature {C}
  11.11,                                  !- Zone Heating Design Supply Air Temperature Difference {deltaC}
  0.0085,                                 !- Zone Cooling Design Supply Air Humidity Ratio {kg-H2O/kg-air}
  0.008,                                  !- Zone Heating Design Supply Air Humidity Ratio {kg-H2O/kg-air}
  ,                                       !- Zone Heating Sizing Factor
  ,                                       !- Zone Cooling Sizing Factor
  DesignDay,                              !- Cooling Design Air Flow Method
  ,                                       !- Cooling Design Air Flow Rate {m3/s}
  ,                                       !- Cooling Minimum Air Flow per Zone Floor Area {m3/s-m2}
  ,                                       !- Cooling Minimum Air Flow {m3/s}
  ,                                       !- Cooling Minimum Air Flow Fraction
  DesignDay,                              !- Heating Design Air Flow Method
  ,                                       !- Heating Design Air Flow Rate {m3/s}
  ,                                       !- Heating Maximum Air Flow per Zone Floor Area {m3/s-m2}
  ,                                       !- Heating Maximum Air Flow {m3/s}
  ,                                       !- Heating Maximum Air Flow Fraction
  No,                                     !- Account for Dedicated Outdoor Air System
  NeutralSupplyAir,                       !- Dedicated Outdoor Air System Control Strategy
  autosize,                               !- Dedicated Outdoor Air Low Setpoint Temperature for Design {C}
  autosize,                               !- Dedicated Outdoor Air High Setpoint Temperature for Design {C}
  Sensible Load Only No Latent Load,      !- Zone Load Sizing Method
  HumidityRatioDifference,                !- Zone Latent Cooling Design Supply Air Humidity Ratio Input Method
  ,                                       !- Zone Dehumidification Design Supply Air Humidity Ratio {kgWater/kgDryAir}
  0.005,                                  !- Zone Cooling Design Supply Air Humidity Ratio Difference {kgWater/kgDryAir}
  HumidityRatioDifference,                !- Zone Latent Heating Design Supply Air Humidity Ratio Input Method
  ,                                       !- Zone Humidification Design Supply Air Humidity Ratio {kgWater/kgDryAir}
  0.005,                                  !- Zone Humidification Design Supply Air Humidity Ratio Difference {kgWater/kgDryAir}
  ,                                       !- Zone Humidistat Dehumidification Set Point Schedule Name
  ,                                       !- Zone Humidistat Humidification Set Point Schedule Name
  ,                                       !- Design Zone Air Distribution Effectiveness in Cooling Mode
  ,                                       !- Design Zone Air Distribution Effectiveness in Heating Mode
  ,                                       !- Design Zone Secondary Recirculation Fraction {dimensionless}
  ,                                       !- Design Minimum Zone Ventilation Efficiency {dimensionless}
  Coincident;                             !- Sizing Option

OS:ZoneHVAC:EquipmentList,
  {ced189b4-5be4-4035-b87d-d3202f20828a}, !- Handle
  Zone HVAC Equipment List 1,             !- Name
  {7bbefe04-5733-4334-be1d-862160488bb5}, !- Thermal Zone
  ,                                       !- Load Distribution Scheme
  {6db6a6a5-fc30-47c7-b648-883c5ee9a285}, !- Zone Equipment 1
  1,                                      !- Zone Equipment Cooling Sequence 1
  1,                                      !- Zone Equipment Heating or No-Load Sequence 1
  {31cd199b-7c24-459e-9d63-c84f68e44a48}, !- Zone Equipment Sequential Cooling Fraction Schedule Name 1
  {1c26267a-2c55-4e49-85d9-48a11e5d8609}; !- Zone Equipment Sequential Heating Fraction Schedule Name 1

OS:AdditionalProperties,
  {e8b2e04d-7054-4560-9ac9-881a3bf687c7}, !- Handle
  {7bbefe04-5733-4334-be1d-862160488bb5}, !- Object Name
  ObjectType,                             !- Feature Name 1
  String,                                 !- Feature Data Type 1
  conditioned space;                      !- Feature Value 1

OS:Space,
  {c70a2ec0-2a4b-4a34-963d-7d9541476e18}, !- Handle
  conditioned space 1,                    !- Name
  ,                                       !- Space Type Name
  ,                                       !- Default Construction Set Name
  ,                                       !- Default Schedule Set Name
  ,                                       !- Direction of Relative North {deg}
  ,                                       !- X Origin {m}
  ,                                       !- Y Origin {m}
  ,                                       !- Z Origin {m}
  ,                                       !- Building Story Name
  {7bbefe04-5733-4334-be1d-862160488bb5}, !- Thermal Zone Name
  ,                                       !- Part of Total Floor Area
  ,                                       !- Design Specification Outdoor Air Object Name
  ,                                       !- Building Unit Name
  692.06373070848;                        !- Volume {m3}

OS:Schedule:Ruleset,
  {4c59d3bd-df7d-4938-8234-73ea247b06e4}, !- Handle
  heating setpoint,                       !- Name
  {a7e3d815-2341-4c74-b7ee-8f7019bc3ad3}, !- Schedule Type Limits Name
  {8534af5d-acd9-47c4-81cd-88c9c5995f6c}; !- Default Day Schedule Name

OS:Schedule:Day,
  {8534af5d-acd9-47c4-81cd-88c9c5995f6c}, !- Handle
  heating setpoint default day,           !- Name
  {a7e3d815-2341-4c74-b7ee-8f7019bc3ad3}, !- Schedule Type Limits Name
  ,                                       !- Interpolate to Timestep
  24,                                     !- Hour 1
  0,                                      !- Minute 1
  0;                                      !- Value Until Time 1

OS:Schedule:Rule,
  {e8e15d8e-a531-4b6a-991b-68b44d026502}, !- Handle
  heating setpoint allday rule,           !- Name
  {4c59d3bd-df7d-4938-8234-73ea247b06e4}, !- Schedule Ruleset Name
  0,                                      !- Rule Order
  {ce67e57a-3420-4ac8-829a-5b31aa9729d2}, !- Day Schedule Name
  Yes,                                    !- Apply Sunday
  Yes,                                    !- Apply Monday
  Yes,                                    !- Apply Tuesday
  Yes,                                    !- Apply Wednesday
  Yes,                                    !- Apply Thursday
  Yes,                                    !- Apply Friday
  Yes,                                    !- Apply Saturday
  DateRange,                              !- Date Specification Type
  1,                                      !- Start Month
  1,                                      !- Start Day
  12,                                     !- End Month
  31;                                     !- End Day

OS:Schedule:Day,
  {ce67e57a-3420-4ac8-829a-5b31aa9729d2}, !- Handle
  heating setpoint day,                   !- Name
  {a7e3d815-2341-4c74-b7ee-8f7019bc3ad3}, !- Schedule Type Limits Name
  ,                                       !- Interpolate to Timestep
  24,                                     !- Hour 1
  0,                                      !- Minute 1
  20;                                     !- Value Until Time 1

OS:Schedule:Ruleset,
  {ac8dc865-9e66-4f87-b45c-73d561e541ce}, !- Handle
  cooling setpoint,                       !- Name
  {a7e3d815-2341-4c74-b7ee-8f7019bc3ad3}, !- Schedule Type Limits Name
  {fd33d351-dcaa-4a21-873a-1eef3069c073}; !- Default Day Schedule Name

OS:Schedule:Day,
  {fd33d351-dcaa-4a21-873a-1eef3069c073}, !- Handle
  cooling setpoint default day,           !- Name
  {a7e3d815-2341-4c74-b7ee-8f7019bc3ad3}, !- Schedule Type Limits Name
  ,                                       !- Interpolate to Timestep
  24,                                     !- Hour 1
  0,                                      !- Minute 1
  0;                                      !- Value Until Time 1

OS:Schedule:Rule,
  {97bd6cc9-f7b3-4a7e-bede-798b73ccbcd4}, !- Handle
  cooling setpoint allday rule,           !- Name
  {ac8dc865-9e66-4f87-b45c-73d561e541ce}, !- Schedule Ruleset Name
  0,                                      !- Rule Order
  {19a05fc5-655a-41ad-9da1-e1cf7938a5b1}, !- Day Schedule Name
  Yes,                                    !- Apply Sunday
  Yes,                                    !- Apply Monday
  Yes,                                    !- Apply Tuesday
  Yes,                                    !- Apply Wednesday
  Yes,                                    !- Apply Thursday
  Yes,                                    !- Apply Friday
  Yes,                                    !- Apply Saturday
  DateRange,                              !- Date Specification Type
  1,                                      !- Start Month
  1,                                      !- Start Day
  12,                                     !- End Month
  31;                                     !- End Day

OS:Schedule:Day,
  {19a05fc5-655a-41ad-9da1-e1cf7938a5b1}, !- Handle
  cooling setpoint day,                   !- Name
  {a7e3d815-2341-4c74-b7ee-8f7019bc3ad3}, !- Schedule Type Limits Name
  ,                                       !- Interpolate to Timestep
  24,                                     !- Hour 1
  0,                                      !- Minute 1
  25.5555555555556;                       !- Value Until Time 1

OS:ThermostatSetpoint:DualSetpoint,
  {3f8bf7f8-308f-458f-896f-14c0d221ed07}, !- Handle
  conditioned space temperature setpoint, !- Name
  {4c59d3bd-df7d-4938-8234-73ea247b06e4}, !- Heating Setpoint Temperature Schedule Name
  {ac8dc865-9e66-4f87-b45c-73d561e541ce}, !- Cooling Setpoint Temperature Schedule Name
  0;                                      !- Temperature Difference Between Cutout And Setpoint {deltaC}

OS:ScheduleTypeLimits,
  {a7e3d815-2341-4c74-b7ee-8f7019bc3ad3}, !- Handle
  Temperature,                            !- Name
  ,                                       !- Lower Limit Value
  ,                                       !- Upper Limit Value
  Continuous,                             !- Numeric Type
  Temperature;                            !- Unit Type

OS:Surface,
  {c171ddb1-3cd2-4fe9-b9db-601ad5de1d51}, !- Handle
  Roof1,                                  !- Name
  RoofCeiling,                            !- Surface Type
  {4d527dab-4c5c-4ea1-8e54-e5f5841aa513}, !- Construction Name
  {96e2ffc6-ec34-4ba7-a64e-e880ce11263b}, !- Space Name
  Outdoors,                               !- Outside Boundary Condition
  ,                                       !- Outside Boundary Condition Object
  SunExposed,                             !- Sun Exposure
  WindExposed,                            !- Wind Exposure
  ,                                       !- View Factor to Ground
  ,                                       !- Number of Vertices
  -11.4590033914137, 34.2822007452599, 2.4384, !- X,Y,Z Vertex 1 {m}
  -11.4590033914137, 26.3157759081827, 6.42161241853859, !- X,Y,Z Vertex 2 {m}
  -2.55226965474012, 26.3157759081827, 6.42161241853859, !- X,Y,Z Vertex 3 {m}
  -2.55226965474012, 34.2822007452599, 2.4384; !- X,Y,Z Vertex 4 {m}

OS:AdditionalProperties,
  {f1a91b3b-8240-4944-b2a5-c2c61d682ba2}, !- Handle
  {c171ddb1-3cd2-4fe9-b9db-601ad5de1d51}, !- Object Name
  Length,                                 !- Feature Name 1
  Double,                                 !- Feature Data Type 1
  29.221567377538118,                     !- Feature Value 1
  Width,                                  !- Feature Name 2
  Double,                                 !- Feature Data Type 2
  29.221567377538118,                     !- Feature Value 2
  Azimuth,                                !- Feature Name 3
  Integer,                                !- Feature Data Type 3
  0,                                      !- Feature Value 3
  Tilt,                                   !- Feature Name 4
  Double,                                 !- Feature Data Type 4
  0.5,                                    !- Feature Value 4
  SurfaceType,                            !- Feature Name 5
  String,                                 !- Feature Data Type 5
  Roof;                                   !- Feature Value 5

OS:ThermalZone,
  {8c011a77-e66a-4052-9ec6-11774d6aa37a}, !- Handle
  attic - vented,                         !- Name
  1,                                      !- Multiplier
  ,                                       !- Ceiling Height {m}
  189.841853920015,                       !- Volume {m3}
  ,                                       !- Floor Area {m2}
  ,                                       !- Zone Inside Convection Algorithm
  ,                                       !- Zone Outside Convection Algorithm
  ,                                       !- Zone Conditioning Equipment List Name
  {5a6e168d-3389-4e10-a5d2-0ab65eb895e6}, !- Zone Air Inlet Port List
  {638aa77b-a37f-4092-ba52-095f7c537682}, !- Zone Air Exhaust Port List
  {9053f36a-9e0f-443d-ab47-b6a9bc2aabcc}, !- Zone Air Node Name
  {af4b5e87-2cb1-4612-b9ab-541731cdb2d8}, !- Zone Return Air Port List
  ,                                       !- Primary Daylighting Control Name
  ,                                       !- Fraction of Zone Controlled by Primary Daylighting Control
  ,                                       !- Secondary Daylighting Control Name
  ,                                       !- Fraction of Zone Controlled by Secondary Daylighting Control
  ,                                       !- Illuminance Map Name
  ,                                       !- Group Rendering Name
  ,                                       !- Thermostat Name
  No;                                     !- Use Ideal Air Loads

OS:Node,
  {5ff4cd69-e2dd-4b08-b6f4-fa8be56cb212}, !- Handle
  Node 2,                                 !- Name
  {9053f36a-9e0f-443d-ab47-b6a9bc2aabcc}, !- Inlet Port
  ;                                       !- Outlet Port

OS:Connection,
  {9053f36a-9e0f-443d-ab47-b6a9bc2aabcc}, !- Handle
  {8c011a77-e66a-4052-9ec6-11774d6aa37a}, !- Source Object
  11,                                     !- Outlet Port
  {5ff4cd69-e2dd-4b08-b6f4-fa8be56cb212}, !- Target Object
  2;                                      !- Inlet Port

OS:PortList,
  {5a6e168d-3389-4e10-a5d2-0ab65eb895e6}, !- Handle
  {8c011a77-e66a-4052-9ec6-11774d6aa37a}; !- HVAC Component

OS:PortList,
  {638aa77b-a37f-4092-ba52-095f7c537682}, !- Handle
  {8c011a77-e66a-4052-9ec6-11774d6aa37a}; !- HVAC Component

OS:PortList,
  {af4b5e87-2cb1-4612-b9ab-541731cdb2d8}, !- Handle
  {8c011a77-e66a-4052-9ec6-11774d6aa37a}; !- HVAC Component

OS:Sizing:Zone,
  {1e386381-8c1a-4d29-9b43-0442647781f9}, !- Handle
  {8c011a77-e66a-4052-9ec6-11774d6aa37a}, !- Zone or ZoneList Name
  SupplyAirTemperature,                   !- Zone Cooling Design Supply Air Temperature Input Method
  14,                                     !- Zone Cooling Design Supply Air Temperature {C}
  11.11,                                  !- Zone Cooling Design Supply Air Temperature Difference {deltaC}
  SupplyAirTemperature,                   !- Zone Heating Design Supply Air Temperature Input Method
  40,                                     !- Zone Heating Design Supply Air Temperature {C}
  11.11,                                  !- Zone Heating Design Supply Air Temperature Difference {deltaC}
  0.0085,                                 !- Zone Cooling Design Supply Air Humidity Ratio {kg-H2O/kg-air}
  0.008,                                  !- Zone Heating Design Supply Air Humidity Ratio {kg-H2O/kg-air}
  ,                                       !- Zone Heating Sizing Factor
  ,                                       !- Zone Cooling Sizing Factor
  DesignDay,                              !- Cooling Design Air Flow Method
  ,                                       !- Cooling Design Air Flow Rate {m3/s}
  ,                                       !- Cooling Minimum Air Flow per Zone Floor Area {m3/s-m2}
  ,                                       !- Cooling Minimum Air Flow {m3/s}
  ,                                       !- Cooling Minimum Air Flow Fraction
  DesignDay,                              !- Heating Design Air Flow Method
  ,                                       !- Heating Design Air Flow Rate {m3/s}
  ,                                       !- Heating Maximum Air Flow per Zone Floor Area {m3/s-m2}
  ,                                       !- Heating Maximum Air Flow {m3/s}
  ,                                       !- Heating Maximum Air Flow Fraction
  No,                                     !- Account for Dedicated Outdoor Air System
  NeutralSupplyAir,                       !- Dedicated Outdoor Air System Control Strategy
  autosize,                               !- Dedicated Outdoor Air Low Setpoint Temperature for Design {C}
  autosize,                               !- Dedicated Outdoor Air High Setpoint Temperature for Design {C}
  Sensible Load Only No Latent Load,      !- Zone Load Sizing Method
  HumidityRatioDifference,                !- Zone Latent Cooling Design Supply Air Humidity Ratio Input Method
  ,                                       !- Zone Dehumidification Design Supply Air Humidity Ratio {kgWater/kgDryAir}
  0.005,                                  !- Zone Cooling Design Supply Air Humidity Ratio Difference {kgWater/kgDryAir}
  HumidityRatioDifference,                !- Zone Latent Heating Design Supply Air Humidity Ratio Input Method
  ,                                       !- Zone Humidification Design Supply Air Humidity Ratio {kgWater/kgDryAir}
  0.005,                                  !- Zone Humidification Design Supply Air Humidity Ratio Difference {kgWater/kgDryAir}
  ,                                       !- Zone Humidistat Dehumidification Set Point Schedule Name
  ,                                       !- Zone Humidistat Humidification Set Point Schedule Name
  ,                                       !- Design Zone Air Distribution Effectiveness in Cooling Mode
  ,                                       !- Design Zone Air Distribution Effectiveness in Heating Mode
  ,                                       !- Design Zone Secondary Recirculation Fraction {dimensionless}
  ,                                       !- Design Minimum Zone Ventilation Efficiency {dimensionless}
  Coincident;                             !- Sizing Option

OS:ZoneHVAC:EquipmentList,
  {52b8b67f-0635-46e9-abff-68c2a1d5615d}, !- Handle
  Zone HVAC Equipment List 2,             !- Name
  {8c011a77-e66a-4052-9ec6-11774d6aa37a}; !- Thermal Zone

OS:AdditionalProperties,
  {e18502d7-5974-44d6-8a11-c7298d2a7417}, !- Handle
  {8c011a77-e66a-4052-9ec6-11774d6aa37a}, !- Object Name
  ObjectType,                             !- Feature Name 1
  String,                                 !- Feature Data Type 1
  attic - vented;                         !- Feature Value 1

OS:Space,
  {96e2ffc6-ec34-4ba7-a64e-e880ce11263b}, !- Handle
  attic - vented 1,                       !- Name
  ,                                       !- Space Type Name
  ,                                       !- Default Construction Set Name
  ,                                       !- Default Schedule Set Name
  ,                                       !- Direction of Relative North {deg}
  ,                                       !- X Origin {m}
  ,                                       !- Y Origin {m}
  ,                                       !- Z Origin {m}
  ,                                       !- Building Story Name
  {8c011a77-e66a-4052-9ec6-11774d6aa37a}, !- Thermal Zone Name
  ,                                       !- Part of Total Floor Area
  ,                                       !- Design Specification Outdoor Air Object Name
  ,                                       !- Building Unit Name
  189.841853920015;                       !- Volume {m3}

OS:Material,
  {446dab13-c6a6-4358-a3d5-19b5cb465434}, !- Handle
  asphalt or fiberglass shingles,         !- Name
  Rough,                                  !- Roughness
  0.00635,                                !- Thickness {m}
  0.162714,                               !- Conductivity {W/m-K}
  1121.4,                                 !- Density {kg/m3}
  1465.45,                                !- Specific Heat {J/kg-K}
  0.9,                                    !- Thermal Absorptance
  0.85,                                   !- Solar Absorptance