
OS:Version,
  {6913d101-5565-4b60-9989-c7f139f49c8d}, !- Handle
  3.10.0;                                 !- Version Identifier

OS:SimulationControl,
  {a60814f1-e146-46ad-9aae-5103aa8f2c13}, !- Handle
  ,                                       !- Do Zone Sizing Calculation
  ,                                       !- Do System Sizing Calculation
  ,                                       !- Do Plant Sizing Calculation
  No;                                     !- Run Simulation for Sizing Periods

OS:Timestep,
  {a1084790-9339-434d-b662-7b1e4aca0a3a}, !- Handle
  1;                                      !- Number of Timesteps per Hour

OS:ShadowCalculation,
  {c6ca88ec-1862-46e5-9c90-3eee13857f4a}, !- Handle
  PolygonClipping,                        !- Shading Calculation Method
  ,                                       !- Shading Calculation Update Frequency Method
  20,                                     !- Shading Calculation Update Frequency
  200,                                    !- Maximum Figures in Shadow Overlap Calculations
  ,                                       !- Polygon Clipping Algorithm
  512,                                    !- Pixel Counting Resolution
  ,                                       !- Sky Diffuse Modeling Algorithm
  No,                                     !- Output External Shading Calculation Results
  No,                                     !- Disable Self-Shading Within Shading Zone Groups
  No;                                     !- Disable Self-Shading From Shading Zone Groups to Other Zones

OS:SurfaceConvectionAlgorithm:Outside,
  {19832b46-efbf-470c-b4e3-33eecfc3cbcc}, !- Handle
  DOE-2;                                  !- Algorithm

OS:SurfaceConvectionAlgorithm:Inside,
  {67907f2f-7a63-4fd7-9e4f-d672498e9743}, !- Handle
  TARP;                                   !- Algorithm

OS:ZoneCapacitanceMultiplier:ResearchSpecial,
  {e195e613-1298-41d7-96f3-b5fc23005b0b}, !- Handle
  7,                                      !- Temperature Capacity Multiplier
  15,                                     !- Humidity Capacity Multiplier
  ;                                       !- Carbon Dioxide Capacity Multiplier

OS:ConvergenceLimits,
  {a3153724-bd1d-48f3-aa20-fa9dbb36ca81}, !- Handle
  0;                                      !- Minimum System Timestep {minutes}

OS:RunPeriod,
  {fe08e913-1841-46d6-accc-4df3772a3910}, !- Handle
  Run Period 1,                           !- Name
  1,                                      !- Begin Month
  1,                                      !- Begin Day of Month
  12,                                     !- End Month
  31,                                     !- End Day of Month
  ,                                       !- Use Weather File Holidays and Special Days
  ,                                       !- Use Weather File Daylight Saving Period
  ,                                       !- Apply Weekend Holiday Rule
  ,                                       !- Use Weather File Rain Indicators
  ,                                       !- Use Weather File Snow Indicators
  ;                                       !- Number of Times Runperiod to be Repeated

OS:PerformancePrecisionTradeoffs,
  {78d5d7f7-5084-49d5-af14-2b6910a7c5a8}, !- Handle
  ,                                       !- Use Coil Direct Solutions
  CarrollMRT;                             !- Zone Radiant Exchange Algorithm

OS:WeatherFile,
  {1bf0db2b-c071-477c-9519-14de9442a4f2}, !- Handle
  Buffalo Niagara Intl Ap,                !- City
  NY,                                     !- State Province Region
  USA,                                    !- Country
  TMY3,                                   !- Data Source
  725280,                                 !- WMO Number
  42.93,                                  !- Latitude {deg}
  -78.73,                                 !- Longitude {deg}
  -5,                                     !- Time Zone {hr}
  215,                                    !- Elevation {m}
  /Users/nmoore/github/urbanopt-example-geojson-project/example_project/weather/USA_NY_Buffalo-Greater.Buffalo.Intl.AP.725280_TMY3.epw, !- Url
  6B50E0FF,                               !- Checksum
  ,                                       !- Start Date Actual Year
  Sunday;                                 !- Start Day of Week

OS:YearDescription,
  {5986b256-f009-40aa-9a7e-5b0d596a022a}, !- Handle
  2007,                                   !- Calendar Year
  ,                                       !- Day of Week for Start Day
  ;                                       !- Is Leap Year

OS:Site,
  {47a8aa68-e420-44bb-9b84-8f211c80df92}, !- Handle
  Buffalo Niagara Intl Ap_NY,             !- Name
  42.93,                                  !- Latitude {deg}
  -78.73,                                 !- Longitude {deg}
  -5,                                     !- Time Zone {hr}
  215,                                    !- Elevation {m}
  Suburbs,                                !- Terrain
  Yes;                                    !- Keep Site Location Information

OS:RunPeriodControl:DaylightSavingTime,
  {0a4ae551-27b4-490f-b707-75aa66dd5e8a}, !- Handle
  Mar 12,                                 !- Start Date
  Nov 5;                                  !- End Date

OS:Site:GroundTemperature:Shallow,
  {a5da1c76-899a-482f-b64f-3ba5cdc20098}, !- Handle
  4.30207395723828,                       !- January Surface Ground Temperature {C}
  2.29327249652502,                       !- February Surface Ground Temperature {C}
  2.13240047156047,                       !- March Surface Ground Temperature {C}
  3.08567940719286,                       !- April Surface Ground Temperature {C}
  6.91256312497526,                       !- May Surface Ground Temperature {C}
  10.7216195949507,                       !- June Surface Ground Temperature {C}
  14.0238679822574,                       !- July Surface Ground Temperature {C}
  16.1157611184724,                       !- August Surface Ground Temperature {C}
  16.2934789303462,                       !- September Surface Ground Temperature {C}
  14.5920754632847,                       !- October Surface Ground Temperature {C}
  11.374036348653,                        !- November Surface Ground Temperature {C}
  7.68182621661674;                       !- December Surface Ground Temperature {C}

OS:ThermalZone,
  {c0fbdd61-c3f8-4cf8-8fff-9c33a8ddb712}, !- Handle
  conditioned space,                      !- Name
  1,                                      !- Multiplier
  ,                                       !- Ceiling Height {m}
  692.06373070848,                        !- Volume {m3}
  ,                                       !- Floor Area {m2}
  ,                                       !- Zone Inside Convection Algorithm
  ,                                       !- Zone Outside Convection Algorithm
  ,                                       !- Zone Conditioning Equipment List Name
  {fbd94177-2f0e-4410-96e3-9cd7b4465efc}, !- Zone Air Inlet Port List
  {050a2835-9078-4da2-a095-2f7f10c253de}, !- Zone Air Exhaust Port List
  {4703a440-0785-4130-9ce6-60d9c47d4b05}, !- Zone Air Node Name
  {7fbdc115-70dd-4321-a04d-b8d9bb05f598}, !- Zone Return Air Port List
  ,                                       !- Primary Daylighting Control Name
  ,                                       !- Fraction of Zone Controlled by Primary Daylighting Control
  ,                                       !- Secondary Daylighting Control Name
  ,                                       !- Fraction of Zone Controlled by Secondary Daylighting Control
  ,                                       !- Illuminance Map Name
  ,                                       !- Group Rendering Name
  {839545f5-9554-4b79-98d8-3caf8907b3a4}, !- Thermostat Name
  No;                                     !- Use Ideal Air Loads

OS:Node,
  {f048cb6f-c35f-482c-8757-eb0ed493cf60}, !- Handle
  Node 1,                                 !- Name
  {4703a440-0785-4130-9ce6-60d9c47d4b05}, !- Inlet Port
  ;                                       !- Outlet Port

OS:Connection,
  {4703a440-0785-4130-9ce6-60d9c47d4b05}, !- Handle
  {c0fbdd61-c3f8-4cf8-8fff-9c33a8ddb712}, !- Source Object
  11,                                     !- Outlet Port
  {f048cb6f-c35f-482c-8757-eb0ed493cf60}, !- Target Object
  2;                                      !- Inlet Port

OS:PortList,
  {fbd94177-2f0e-4410-96e3-9cd7b4465efc}, !- Handle
  {c0fbdd61-c3f8-4cf8-8fff-9c33a8ddb712}, !- HVAC Component
  {d7d1828b-3f85-460e-ba5d-501400127bbf}; !- Port 1

OS:PortList,
  {050a2835-9078-4da2-a095-2f7f10c253de}, !- Handle
  {c0fbdd61-c3f8-4cf8-8fff-9c33a8ddb712}; !- HVAC Component

OS:PortList,
  {7fbdc115-70dd-4321-a04d-b8d9bb05f598}, !- Handle
  {c0fbdd61-c3f8-4cf8-8fff-9c33a8ddb712}, !- HVAC Component
  {3788c315-2436-4189-8943-b5bd1d3ef768}; !- Port 1

OS:Sizing:Zone,
  {dcd5af88-c7e3-48e6-a430-31f43f091f59}, !- Handle
  {c0fbdd61-c3f8-4cf8-8fff-9c33a8ddb712}, !- Zone or ZoneList Name
  SupplyAirTemperature,                   !- Zone Cooling Design Supply Air Temperature Input Method
  14,                                     !- Zone Cooling Design Supply Air Temperature {C}
  11.11,                                  !- Zone Cooling Design Supply Air Temperature Difference {deltaC}
  SupplyAirTemperature,                   !- Zone Heating Design Supply Air Temperature Input Method
  40,                                     !- Zone Heating Design Supply Air Temperature {C}
  11.11,                                  !- Zone Heating Design Supply Air Temperature Difference {deltaC}
  0.0085,                                 !- Zone Cooling Design Supply Air Humidity Ratio {kg-H2O/kg-air}
  0.008,                                  !- Zone Heating Design Supply Air Humidity Ratio {kg-H2O/kg-air}
  ,                                       !- Zone Heating Sizing Factor
  ,                                       !- Zone Cooling Sizing Factor
  DesignDay,                              !- Cooling Design Air Flow Method
  ,                                       !- Cooling Design Air Flow Rate {m3/s}
  ,                                       !- Cooling Minimum Air Flow per Zone Floor Area {m3/s-m2}
  ,                                       !- Cooling Minimum Air Flow {m3/s}
  ,                                       !- Cooling Minimum Air Flow Fraction
  DesignDay,                              !- Heating Design Air Flow Method
  ,                                       !- Heating Design Air Flow Rate {m3/s}
  ,                                       !- Heating Maximum Air Flow per Zone Floor Area {m3/s-m2}
  ,                                       !- Heating Maximum Air Flow {m3/s}
  ,                                       !- Heating Maximum Air Flow Fraction
  No,                                     !- Account for Dedicated Outdoor Air System
  NeutralSupplyAir,                       !- Dedicated Outdoor Air System Control Strategy
  autosize,                               !- Dedicated Outdoor Air Low Setpoint Temperature for Design {C}
  autosize,                               !- Dedicated Outdoor Air High Setpoint Temperature for Design {C}
  Sensible Load Only No Latent Load,      !- Zone Load Sizing Method
  HumidityRatioDifference,                !- Zone Latent Cooling Design Supply Air Humidity Ratio Input Method
  ,                                       !- Zone Dehumidification Design Supply Air Humidity Ratio {kgWater/kgDryAir}
  0.005,                                  !- Zone Cooling Design Supply Air Humidity Ratio Difference {kgWater/kgDryAir}
  HumidityRatioDifference,                !- Zone Latent Heating Design Supply Air Humidity Ratio Input Method
  ,                                       !- Zone Humidification Design Supply Air Humidity Ratio {kgWater/kgDryAir}
  0.005,                                  !- Zone Humidification Design Supply Air Humidity Ratio Difference {kgWater/kgDryAir}
  ,                                       !- Zone Humidistat Dehumidification Set Point Schedule Name
  ,                                       !- Zone Humidistat Humidification Set Point Schedule Name
  ,                                       !- Design Zone Air Distribution Effectiveness in Cooling Mode
  ,                                       !- Design Zone Air Distribution Effectiveness in Heating Mode
  ,                                       !- Design Zone Secondary Recirculation Fraction {dimensionless}
  ,                                       !- Design Minimum Zone Ventilation Efficiency {dimensionless}
  Coincident;                             !- Sizing Option

OS:ZoneHVAC:EquipmentList,
  {89c2c515-7562-4286-9a0a-ab91e8840881}, !- Handle
  Zone HVAC Equipment List 1,             !- Name
  {c0fbdd61-c3f8-4cf8-8fff-9c33a8ddb712}, !- Thermal Zone
  ,                                       !- Load Distribution Scheme
  {654b350f-a370-4614-b723-e7c0dfc2b546}, !- Zone Equipment 1
  1,                                      !- Zone Equipment Cooling Sequence 1
  1,                                      !- Zone Equipment Heating or No-Load Sequence 1
  {03d73bf9-134d-43fe-bec0-22f18e5d31a2}, !- Zone Equipment Sequential Cooling Fraction Schedule Name 1
  {702732a4-5170-4956-9274-57d82b42a01a}; !- Zone Equipment Sequential Heating Fraction Schedule Name 1

OS:AdditionalProperties,
  {24b0461f-bcbc-46de-b450-a5772ff26fc4}, !- Handle
  {c0fbdd61-c3f8-4cf8-8fff-9c33a8ddb712}, !- Object Name
  ObjectType,                             !- Feature Name 1
  String,                                 !- Feature Data Type 1
  conditioned space;                      !- Feature Value 1

OS:Space,
  {07d6acb0-7f46-4857-bc83-37b5679d2604}, !- Handle
  conditioned space 1,                    !- Name
  ,                                       !- Space Type Name
  ,                                       !- Default Construction Set Name
  ,                                       !- Default Schedule Set Name
  ,                                       !- Direction of Relative North {deg}
  ,                                       !- X Origin {m}
  ,                                       !- Y Origin {m}
  ,                                       !- Z Origin {m}
  ,                                       !- Building Story Name
  {c0fbdd61-c3f8-4cf8-8fff-9c33a8ddb712}, !- Thermal Zone Name
  ,                                       !- Part of Total Floor Area
  ,                                       !- Design Specification Outdoor Air Object Name
  ,                                       !- Building Unit Name
  692.06373070848;                        !- Volume {m3}

OS:Schedule:Ruleset,
  {a1cbb222-390a-412c-8cff-a8b4b2b5fb6a}, !- Handle
  heating setpoint,                       !- Name
  {16d56d89-cbc1-47c3-8a44-40d6a3df899b}, !- Schedule Type Limits Name
  {47b698e7-6af2-47ed-b7cf-ffd3a9b92e21}; !- Default Day Schedule Name

OS:Schedule:Day,
  {47b698e7-6af2-47ed-b7cf-ffd3a9b92e21}, !- Handle
  heating setpoint default day,           !- Name
  {16d56d89-cbc1-47c3-8a44-40d6a3df899b}, !- Schedule Type Limits Name
  ,                                       !- Interpolate to Timestep
  24,                                     !- Hour 1
  0,                                      !- Minute 1
  0;                                      !- Value Until Time 1

OS:Schedule:Rule,
  {bf553c5d-fbe0-4b55-a986-9ebe9540b076}, !- Handle
  heating setpoint allday rule,           !- Name
  {a1cbb222-390a-412c-8cff-a8b4b2b5fb6a}, !- Schedule Ruleset Name
  0,                                      !- Rule Order
  {db61fa44-e55e-4bb3-891f-cde55acb1eee}, !- Day Schedule Name
  Yes,                                    !- Apply Sunday
  Yes,                                    !- Apply Monday
  Yes,                                    !- Apply Tuesday
  Yes,                                    !- Apply Wednesday
  Yes,                                    !- Apply Thursday
  Yes,                                    !- Apply Friday
  Yes,                                    !- Apply Saturday
  DateRange,                              !- Date Specification Type
  1,                                      !- Start Month
  1,                                      !- Start Day
  12,                                     !- End Month
  31;                                     !- End Day

OS:Schedule:Day,
  {db61fa44-e55e-4bb3-891f-cde55acb1eee}, !- Handle
  heating setpoint day,                   !- Name
  {16d56d89-cbc1-47c3-8a44-40d6a3df899b}, !- Schedule Type Limits Name
  ,                                       !- Interpolate to Timestep
  24,                                     !- Hour 1
  0,                                      !- Minute 1
  20;                                     !- Value Until Time 1

OS:Schedule:Ruleset,
  {957f5aef-6eb2-4450-8663-251379e6dd93}, !- Handle
  cooling setpoint,                       !- Name
  {16d56d89-cbc1-47c3-8a44-40d6a3df899b}, !- Schedule Type Limits Name
  {ca1a6774-ff1a-4e2d-ae8b-43c4c8cc69b4}; !- Default Day Schedule Name

OS:Schedule:Day,
  {ca1a6774-ff1a-4e2d-ae8b-43c4c8cc69b4}, !- Handle
  cooling setpoint default day,           !- Name
  {16d56d89-cbc1-47c3-8a44-40d6a3df899b}, !- Schedule Type Limits Name
  ,                                       !- Interpolate to Timestep
  24,                                     !- Hour 1
  0,                                      !- Minute 1
  0;                                      !- Value Until Time 1

OS:Schedule:Rule,
  {70c2e539-a000-4c6e-8a6c-2cda11cd6d4b}, !- Handle
  cooling setpoint allday rule,           !- Name
  {957f5aef-6eb2-4450-8663-251379e6dd93}, !- Schedule Ruleset Name
  0,                                      !- Rule Order
  {bb11bac4-8e72-4469-bc85-877994a1b788}, !- Day Schedule Name
  Yes,                                    !- Apply Sunday
  Yes,                                    !- Apply Monday
  Yes,                                    !- Apply Tuesday
  Yes,                                    !- Apply Wednesday
  Yes,                                    !- Apply Thursday
  Yes,                                    !- Apply Friday
  Yes,                                    !- Apply Saturday
  DateRange,                              !- Date Specification Type
  1,                                      !- Start Month
  1,                                      !- Start Day
  12,                                     !- End Month
  31;                                     !- End Day

OS:Schedule:Day,
  {bb11bac4-8e72-4469-bc85-877994a1b788}, !- Handle
  cooling setpoint day,                   !- Name
  {16d56d89-cbc1-47c3-8a44-40d6a3df899b}, !- Schedule Type Limits Name
  ,                                       !- Interpolate to Timestep
  24,                                     !- Hour 1
  0,                                      !- Minute 1
  25.5555555555556;                       !- Value Until Time 1

OS:ThermostatSetpoint:DualSetpoint,
  {839545f5-9554-4b79-98d8-3caf8907b3a4}, !- Handle
  conditioned space temperature setpoint, !- Name
  {a1cbb222-390a-412c-8cff-a8b4b2b5fb6a}, !- Heating Setpoint Temperature Schedule Name
  {957f5aef-6eb2-4450-8663-251379e6dd93}, !- Cooling Setpoint Temperature Schedule Name
  0;                                      !- Temperature Difference Between Cutout And Setpoint {deltaC}

OS:ScheduleTypeLimits,
  {16d56d89-cbc1-47c3-8a44-40d6a3df899b}, !- Handle
  Temperature,                            !- Name
  ,                                       !- Lower Limit Value
  ,                                       !- Upper Limit Value
  Continuous,                             !- Numeric Type
  Temperature;                            !- Unit Type

OS:Surface,
  {247feaee-fc4d-4332-b171-785a9167350b}, !- Handle
  Roof1,                                  !- Name
  RoofCeiling,                            !- Surface Type
  {e541e5d2-0e1f-485a-bd72-87c2fa0dd0d9}, !- Construction Name
  {152e1fd7-90d8-4450-8b17-12008790f43c}, !- Space Name
  Outdoors,                               !- Outside Boundary Condition
  ,                                       !- Outside Boundary Condition Object
  SunExposed,                             !- Sun Exposure
  WindExposed,                            !- Wind Exposure
  ,                                       !- View Factor to Ground
  ,                                       !- Number of Vertices
  -11.4590033914137, 34.2822007452599, 2.4384, !- X,Y,Z Vertex 1 {m}
  -11.4590033914137, 26.3157759081827, 6.42161241853859, !- X,Y,Z Vertex 2 {m}
  -2.55226965474012, 26.3157759081827, 6.42161241853859, !- X,Y,Z Vertex 3 {m}
  -2.55226965474012, 34.2822007452599, 2.4384; !- X,Y,Z Vertex 4 {m}

OS:AdditionalProperties,
  {269d43e0-e921-4c53-876b-63ad017d1418}, !- Handle
  {247feaee-fc4d-4332-b171-785a9167350b}, !- Object Name
  Length,                                 !- Feature Name 1
  Double,                                 !- Feature Data Type 1
  29.221567377538118,                     !- Feature Value 1
  Width,                                  !- Feature Name 2
  Double,                                 !- Feature Data Type 2
  29.221567377538118,                     !- Feature Value 2
  Azimuth,                                !- Feature Name 3
  Integer,                                !- Feature Data Type 3
  0,                                      !- Feature Value 3
  Tilt,                                   !- Feature Name 4
  Double,                                 !- Feature Data Type 4
  0.5,                                    !- Feature Value 4
  SurfaceType,                            !- Feature Name 5
  String,                                 !- Feature Data Type 5
  Roof;                                   !- Feature Value 5

OS:ThermalZone,
  {f35209d8-0a6c-4d68-a25f-7588c77e1a9e}, !- Handle
  attic - vented,                         !- Name
  1,                                      !- Multiplier
  ,                                       !- Ceiling Height {m}
  189.835100150078,                       !- Volume {m3}
  ,                                       !- Floor Area {m2}
  ,                                       !- Zone Inside Convection Algorithm
  ,                                       !- Zone Outside Convection Algorithm
  ,                                       !- Zone Conditioning Equipment List Name
  {e2f2c9c8-783f-43c8-b4df-3d89bf3440f1}, !- Zone Air Inlet Port List
  {118a0960-150e-4e11-899b-b13d0df5bd54}, !- Zone Air Exhaust Port List
  {ce82f374-7ab3-404b-a15a-1fb4f2bf3c4f}, !- Zone Air Node Name
  {764cee6b-ca60-4ee1-a4c2-a736826ce884}, !- Zone Return Air Port List
  ,                                       !- Primary Daylighting Control Name
  ,                                       !- Fraction of Zone Controlled by Primary Daylighting Control
  ,                                       !- Secondary Daylighting Control Name
  ,                                       !- Fraction of Zone Controlled by Secondary Daylighting Control
  ,                                       !- Illuminance Map Name
  ,                                       !- Group Rendering Name
  ,                                       !- Thermostat Name
  No;                                     !- Use Ideal Air Loads

OS:Node,
  {fdb7b762-4da0-4cbb-bc29-401f459f64cb}, !- Handle
  Node 2,                                 !- Name
  {ce82f374-7ab3-404b-a15a-1fb4f2bf3c4f}, !- Inlet Port
  ;                                       !- Outlet Port

OS:Connection,
  {ce82f374-7ab3-404b-a15a-1fb4f2bf3c4f}, !- Handle
  {f35209d8-0a6c-4d68-a25f-7588c77e1a9e}, !- Source Object
  11,                                     !- Outlet Port
  {fdb7b762-4da0-4cbb-bc29-401f459f64cb}, !- Target Object
  2;                                      !- Inlet Port

OS:PortList,
  {e2f2c9c8-783f-43c8-b4df-3d89bf3440f1}, !- Handle
  {f35209d8-0a6c-4d68-a25f-7588c77e1a9e}; !- HVAC Component

OS:PortList,
  {118a0960-150e-4e11-899b-b13d0df5bd54}, !- Handle
  {f35209d8-0a6c-4d68-a25f-7588c77e1a9e}; !- HVAC Component

OS:PortList,
  {764cee6b-ca60-4ee1-a4c2-a736826ce884}, !- Handle
  {f35209d8-0a6c-4d68-a25f-7588c77e1a9e}; !- HVAC Component

OS:Sizing:Zone,
  {7fd59b92-76be-4458-9c62-ca8e51cc83b7}, !- Handle
  {f35209d8-0a6c-4d68-a25f-7588c77e1a9e}, !- Zone or ZoneList Name
  SupplyAirTemperature,                   !- Zone Cooling Design Supply Air Temperature Input Method
  14,                                     !- Zone Cooling Design Supply Air Temperature {C}
  11.11,                                  !- Zone Cooling Design Supply Air Temperature Difference {deltaC}
  SupplyAirTemperature,                   !- Zone Heating Design Supply Air Temperature Input Method
  40,                                     !- Zone Heating Design Supply Air Temperature {C}
  11.11,                                  !- Zone Heating Design Supply Air Temperature Difference {deltaC}
  0.0085,                                 !- Zone Cooling Design Supply Air Humidity Ratio {kg-H2O/kg-air}
  0.008,                                  !- Zone Heating Design Supply Air Humidity Ratio {kg-H2O/kg-air}
  ,                                       !- Zone Heating Sizing Factor
  ,                                       !- Zone Cooling Sizing Factor
  DesignDay,                              !- Cooling Design Air Flow Method
  ,                                       !- Cooling Design Air Flow Rate {m3/s}
  ,                                       !- Cooling Minimum Air Flow per Zone Floor Area {m3/s-m2}
  ,                                       !- Cooling Minimum Air Flow {m3/s}
  ,                                       !- Cooling Minimum Air Flow Fraction
  DesignDay,                              !- Heating Design Air Flow Method
  ,                                       !- Heating Design Air Flow Rate {m3/s}
  ,                                       !- Heating Maximum Air Flow per Zone Floor Area {m3/s-m2}
  ,                                       !- Heating Maximum Air Flow {m3/s}
  ,                                       !- Heating Maximum Air Flow Fraction
  No,                                     !- Account for Dedicated Outdoor Air System
  NeutralSupplyAir,                       !- Dedicated Outdoor Air System Control Strategy
  autosize,                               !- Dedicated Outdoor Air Low Setpoint Temperature for Design {C}
  autosize,                               !- Dedicated Outdoor Air High Setpoint Temperature for Design {C}
  Sensible Load Only No Latent Load,      !- Zone Load Sizing Method
  HumidityRatioDifference,                !- Zone Latent Cooling Design Supply Air Humidity Ratio Input Method
  ,                                       !- Zone Dehumidification Design Supply Air Humidity Ratio {kgWater/kgDryAir}
  0.005,                                  !- Zone Cooling Design Supply Air Humidity Ratio Difference {kgWater/kgDryAir}
  HumidityRatioDifference,                !- Zone Latent Heating Design Supply Air Humidity Ratio Input Method
  ,                                       !- Zone Humidification Design Supply Air Humidity Ratio {kgWater/kgDryAir}
  0.005,                                  !- Zone Humidification Design Supply Air Humidity Ratio Difference {kgWater/kgDryAir}
  ,                                       !- Zone Humidistat Dehumidification Set Point Schedule Name
  ,                                       !- Zone Humidistat Humidification Set Point Schedule Name
  ,                                       !- Design Zone Air Distribution Effectiveness in Cooling Mode
  ,                                       !- Design Zone Air Distribution Effectiveness in Heating Mode
  ,                                       !- Design Zone Secondary Recirculation Fraction {dimensionless}
  ,                                       !- Design Minimum Zone Ventilation Efficiency {dimensionless}
  Coincident;                             !- Sizing Option

OS:ZoneHVAC:EquipmentList,
  {ae013db4-17c1-4747-aea1-29870ba2dd8f}, !- Handle
  Zone HVAC Equipment List 2,             !- Name
  {f35209d8-0a6c-4d68-a25f-7588c77e1a9e}; !- Thermal Zone

OS:AdditionalProperties,
  {0e6c8eb5-1cbf-4909-bd4f-4b41522cea64}, !- Handle
  {f35209d8-0a6c-4d68-a25f-7588c77e1a9e}, !- Object Name
  ObjectType,                             !- Feature Name 1
  String,                                 !- Feature Data Type 1
  attic - vented;                         !- Feature Value 1

OS:Space,
  {152e1fd7-90d8-4450-8b17-12008790f43c}, !- Handle
  attic - vented 1,                       !- Name
  ,                                       !- Space Type Name
  ,                                       !- Default Construction Set Name
  ,                                       !- Default Schedule Set Name
  ,                                       !- Direction of Relative North {deg}
  ,                                       !- X Origin {m}
  ,                                       !- Y Origin {m}
  ,                                       !- Z Origin {m}
  ,                                       !- Building Story Name
  {f35209d8-0a6c-4d68-a25f-7588c77e1a9e}, !- Thermal Zone Name
  ,                                       !- Part of Total Floor Area
  ,                                       !- Design Specification Outdoor Air Object Name
  ,                                       !- Building Unit Name
  189.835100150078;                       !- Volume {m3}

OS:Material,
  {7cba4f1c-7f9c-4f04-9e16-1dfae04e1333}, !- Handle
  asphalt or fiberglass shingles,         !- Name
  Rough,                                  !- Roughness
  0.00635,                                !- Thickness {m}
  0.162714,                               !- Conductivity {W/m-K}
  1121.4,                                 !- Density {kg/m3}
  1465.45,                                !- Specific Heat {J/kg-K}
  0.9,                                    !- Thermal Absorptance
  0.85,                                   !- Solar Absorptance