
OS:Version,
  {a97eb0fc-8c67-4a36-bc6d-bcb384a5c1d1}, !- Handle
  3.10.0;                                 !- Version Identifier

OS:SimulationControl,
  {53d9b079-2955-43c7-8f51-fee92cbfe701}, !- Handle
  ,                                       !- Do Zone Sizing Calculation
  ,                                       !- Do System Sizing Calculation
  ,                                       !- Do Plant Sizing Calculation
  No;                                     !- Run Simulation for Sizing Periods

OS:Timestep,
  {76ab1659-5601-4a53-90f2-c159e0fa60d2}, !- Handle
  1;                                      !- Number of Timesteps per Hour

OS:ShadowCalculation,
  {ee4aa418-c6be-4273-8416-58e40cb749bd}, !- Handle
  PolygonClipping,                        !- Shading Calculation Method
  ,                                       !- Shading Calculation Update Frequency Method
  20,                                     !- Shading Calculation Update Frequency
  200,                                    !- Maximum Figures in Shadow Overlap Calculations
  ,                                       !- Polygon Clipping Algorithm
  512,                                    !- Pixel Counting Resolution
  ,                                       !- Sky Diffuse Modeling Algorithm
  No,                                     !- Output External Shading Calculation Results
  No,                                     !- Disable Self-Shading Within Shading Zone Groups
  No;                                     !- Disable Self-Shading From Shading Zone Groups to Other Zones

OS:SurfaceConvectionAlgorithm:Outside,
  {026d2833-2621-445c-bd93-58cd7feb4107}, !- Handle
  DOE-2;                                  !- Algorithm

OS:SurfaceConvectionAlgorithm:Inside,
  {114af51d-9359-451d-af21-a227ca85378b}, !- Handle
  TARP;                                   !- Algorithm

OS:ZoneCapacitanceMultiplier:ResearchSpecial,
  {6e09643d-7a7e-4bb4-97c7-3c1468fc4807}, !- Handle
  7,                                      !- Temperature Capacity Multiplier
  15,                                     !- Humidity Capacity Multiplier
  ;                                       !- Carbon Dioxide Capacity Multiplier

OS:ConvergenceLimits,
  {500f1070-8b7a-4372-843d-a22e792af33f}, !- Handle
  0;                                      !- Minimum System Timestep {minutes}

OS:RunPeriod,
  {89e5189b-af4e-428f-9384-b2a80bb897cb}, !- Handle
  Run Period 1,                           !- Name
  1,                                      !- Begin Month
  1,                                      !- Begin Day of Month
  12,                                     !- End Month
  31,                                     !- End Day of Month
  ,                                       !- Use Weather File Holidays and Special Days
  ,                                       !- Use Weather File Daylight Saving Period
  ,                                       !- Apply Weekend Holiday Rule
  ,                                       !- Use Weather File Rain Indicators
  ,                                       !- Use Weather File Snow Indicators
  ;                                       !- Number of Times Runperiod to be Repeated

OS:PerformancePrecisionTradeoffs,
  {d6493e64-4ed7-48f5-8de8-35ae6ed2ddcf}, !- Handle
  ,                                       !- Use Coil Direct Solutions
  CarrollMRT;                             !- Zone Radiant Exchange Algorithm

OS:WeatherFile,
  {dc2bee7a-c120-4338-a027-2a444d7f48ea}, !- Handle
  Buffalo Niagara Intl Ap,                !- City
  NY,                                     !- State Province Region
  USA,                                    !- Country
  TMY3,                                   !- Data Source
  725280,                                 !- WMO Number
  42.93,                                  !- Latitude {deg}
  -78.73,                                 !- Longitude {deg}
  -5,                                     !- Time Zone {hr}
  215,                                    !- Elevation {m}
  /Users/nmoore/github/urbanopt-example-geojson-project/example_project/weather/USA_NY_Buffalo-Greater.Buffalo.Intl.AP.725280_TMY3.epw, !- Url
  6B50E0FF,                               !- Checksum
  ,                                       !- Start Date Actual Year
  Sunday;                                 !- Start Day of Week

OS:YearDescription,
  {cca01967-2461-49a1-a30e-fb1c1c3fa932}, !- Handle
  2007,                                   !- Calendar Year
  ,                                       !- Day of Week for Start Day
  ;                                       !- Is Leap Year

OS:Site,
  {100cf858-8f5f-4d4a-9581-2a106a0ae4c2}, !- Handle
  Buffalo Niagara Intl Ap_NY,             !- Name
  42.93,                                  !- Latitude {deg}
  -78.73,                                 !- Longitude {deg}
  -5,                                     !- Time Zone {hr}
  215,                                    !- Elevation {m}
  Suburbs,                                !- Terrain
  Yes;                                    !- Keep Site Location Information

OS:RunPeriodControl:DaylightSavingTime,
  {71090039-1555-4fc7-a048-35a2f441bdec}, !- Handle
  Mar 12,                                 !- Start Date
  Nov 5;                                  !- End Date

OS:Site:GroundTemperature:Shallow,
  {7f4f7f0d-f117-4c32-8d25-d7035383a7c6}, !- Handle
  4.30207395723828,                       !- January Surface Ground Temperature {C}
  2.29327249652502,                       !- February Surface Ground Temperature {C}
  2.13240047156047,                       !- March Surface Ground Temperature {C}
  3.08567940719286,                       !- April Surface Ground Temperature {C}
  6.91256312497526,                       !- May Surface Ground Temperature {C}
  10.7216195949507,                       !- June Surface Ground Temperature {C}
  14.0238679822574,                       !- July Surface Ground Temperature {C}
  16.1157611184724,                       !- August Surface Ground Temperature {C}
  16.2934789303462,                       !- September Surface Ground Temperature {C}
  14.5920754632847,                       !- October Surface Ground Temperature {C}
  11.374036348653,                        !- November Surface Ground Temperature {C}
  7.68182621661674;                       !- December Surface Ground Temperature {C}

OS:ThermalZone,
  {6a3298f4-72df-4b0e-a85e-0548fb4d7743}, !- Handle
  conditioned space,                      !- Name
  1,                                      !- Multiplier
  ,                                       !- Ceiling Height {m}
  692.06373070848,                        !- Volume {m3}
  ,                                       !- Floor Area {m2}
  ,                                       !- Zone Inside Convection Algorithm
  ,                                       !- Zone Outside Convection Algorithm
  ,                                       !- Zone Conditioning Equipment List Name
  {cc7b6d5a-daf8-4be5-b34e-d2c9c5477efd}, !- Zone Air Inlet Port List
  {46bc19ab-3582-41a6-9162-7ca91a482b3e}, !- Zone Air Exhaust Port List
  {caac8695-3c0c-48b9-a0bb-fbe675a541a3}, !- Zone Air Node Name
  {90801a36-405f-411c-85be-06e8756cad2c}, !- Zone Return Air Port List
  ,                                       !- Primary Daylighting Control Name
  ,                                       !- Fraction of Zone Controlled by Primary Daylighting Control
  ,                                       !- Secondary Daylighting Control Name
  ,                                       !- Fraction of Zone Controlled by Secondary Daylighting Control
  ,                                       !- Illuminance Map Name
  ,                                       !- Group Rendering Name
  {9955e5f5-ed4b-4a97-96a5-756904d07542}, !- Thermostat Name
  No;                                     !- Use Ideal Air Loads

OS:Node,
  {8914bafb-2778-4dad-868c-ba6799b8275f}, !- Handle
  Node 1,                                 !- Name
  {caac8695-3c0c-48b9-a0bb-fbe675a541a3}, !- Inlet Port
  ;                                       !- Outlet Port

OS:Connection,
  {caac8695-3c0c-48b9-a0bb-fbe675a541a3}, !- Handle
  {6a3298f4-72df-4b0e-a85e-0548fb4d7743}, !- Source Object
  11,                                     !- Outlet Port
  {8914bafb-2778-4dad-868c-ba6799b8275f}, !- Target Object
  2;                                      !- Inlet Port

OS:PortList,
  {cc7b6d5a-daf8-4be5-b34e-d2c9c5477efd}, !- Handle
  {6a3298f4-72df-4b0e-a85e-0548fb4d7743}, !- HVAC Component
  {7114741a-182d-4f63-a135-cd9dde27bf93}; !- Port 1

OS:PortList,
  {46bc19ab-3582-41a6-9162-7ca91a482b3e}, !- Handle
  {6a3298f4-72df-4b0e-a85e-0548fb4d7743}; !- HVAC Component

OS:PortList,
  {90801a36-405f-411c-85be-06e8756cad2c}, !- Handle
  {6a3298f4-72df-4b0e-a85e-0548fb4d7743}, !- HVAC Component
  {21da9261-81a1-4773-b369-061a00860291}; !- Port 1

OS:Sizing:Zone,
  {91aa907c-5857-4339-9770-6dc703a04fe8}, !- Handle
  {6a3298f4-72df-4b0e-a85e-0548fb4d7743}, !- Zone or ZoneList Name
  SupplyAirTemperature,                   !- Zone Cooling Design Supply Air Temperature Input Method
  14,                                     !- Zone Cooling Design Supply Air Temperature {C}
  11.11,                                  !- Zone Cooling Design Supply Air Temperature Difference {deltaC}
  SupplyAirTemperature,                   !- Zone Heating Design Supply Air Temperature Input Method
  40,                                     !- Zone Heating Design Supply Air Temperature {C}
  11.11,                                  !- Zone Heating Design Supply Air Temperature Difference {deltaC}
  0.0085,                                 !- Zone Cooling Design Supply Air Humidity Ratio {kg-H2O/kg-air}
  0.008,                                  !- Zone Heating Design Supply Air Humidity Ratio {kg-H2O/kg-air}
  ,                                       !- Zone Heating Sizing Factor
  ,                                       !- Zone Cooling Sizing Factor
  DesignDay,                              !- Cooling Design Air Flow Method
  ,                                       !- Cooling Design Air Flow Rate {m3/s}
  ,                                       !- Cooling Minimum Air Flow per Zone Floor Area {m3/s-m2}
  ,                                       !- Cooling Minimum Air Flow {m3/s}
  ,                                       !- Cooling Minimum Air Flow Fraction
  DesignDay,                              !- Heating Design Air Flow Method
  ,                                       !- Heating Design Air Flow Rate {m3/s}
  ,                                       !- Heating Maximum Air Flow per Zone Floor Area {m3/s-m2}
  ,                                       !- Heating Maximum Air Flow {m3/s}
  ,                                       !- Heating Maximum Air Flow Fraction
  No,                                     !- Account for Dedicated Outdoor Air System
  NeutralSupplyAir,                       !- Dedicated Outdoor Air System Control Strategy
  autosize,                               !- Dedicated Outdoor Air Low Setpoint Temperature for Design {C}
  autosize,                               !- Dedicated Outdoor Air High Setpoint Temperature for Design {C}
  Sensible Load Only No Latent Load,      !- Zone Load Sizing Method
  HumidityRatioDifference,                !- Zone Latent Cooling Design Supply Air Humidity Ratio Input Method
  ,                                       !- Zone Dehumidification Design Supply Air Humidity Ratio {kgWater/kgDryAir}
  0.005,                                  !- Zone Cooling Design Supply Air Humidity Ratio Difference {kgWater/kgDryAir}
  HumidityRatioDifference,                !- Zone Latent Heating Design Supply Air Humidity Ratio Input Method
  ,                                       !- Zone Humidification Design Supply Air Humidity Ratio {kgWater/kgDryAir}
  0.005,                                  !- Zone Humidification Design Supply Air Humidity Ratio Difference {kgWater/kgDryAir}
  ,                                       !- Zone Humidistat Dehumidification Set Point Schedule Name
  ,                                       !- Zone Humidistat Humidification Set Point Schedule Name
  ,                                       !- Design Zone Air Distribution Effectiveness in Cooling Mode
  ,                                       !- Design Zone Air Distribution Effectiveness in Heating Mode
  ,                                       !- Design Zone Secondary Recirculation Fraction {dimensionless}
  ,                                       !- Design Minimum Zone Ventilation Efficiency {dimensionless}
  Coincident;                             !- Sizing Option

OS:ZoneHVAC:EquipmentList,
  {0d8e8603-68ec-49f9-95eb-7e29c968e2a9}, !- Handle
  Zone HVAC Equipment List 1,             !- Name
  {6a3298f4-72df-4b0e-a85e-0548fb4d7743}, !- Thermal Zone
  ,                                       !- Load Distribution Scheme
  {7bae106c-3860-45bf-9760-8ace4ecf80ca}, !- Zone Equipment 1
  1,                                      !- Zone Equipment Cooling Sequence 1
  1,                                      !- Zone Equipment Heating or No-Load Sequence 1
  {a1760217-31ad-44bd-9c26-f6544f3abb76}, !- Zone Equipment Sequential Cooling Fraction Schedule Name 1
  {221281b0-4e8b-4e8d-a1cf-69e18adb6e4e}; !- Zone Equipment Sequential Heating Fraction Schedule Name 1

OS:AdditionalProperties,
  {e46ba8ee-adbf-4c35-8a7b-21b4ff57e80b}, !- Handle
  {6a3298f4-72df-4b0e-a85e-0548fb4d7743}, !- Object Name
  ObjectType,                             !- Feature Name 1
  String,                                 !- Feature Data Type 1
  conditioned space;                      !- Feature Value 1

OS:Space,
  {61774c19-cc1e-418a-b4ab-e2b353006225}, !- Handle
  conditioned space 1,                    !- Name
  ,                                       !- Space Type Name
  ,                                       !- Default Construction Set Name
  ,                                       !- Default Schedule Set Name
  ,                                       !- Direction of Relative North {deg}
  ,                                       !- X Origin {m}
  ,                                       !- Y Origin {m}
  ,                                       !- Z Origin {m}
  ,                                       !- Building Story Name
  {6a3298f4-72df-4b0e-a85e-0548fb4d7743}, !- Thermal Zone Name
  ,                                       !- Part of Total Floor Area
  ,                                       !- Design Specification Outdoor Air Object Name
  ,                                       !- Building Unit Name
  692.06373070848;                        !- Volume {m3}

OS:Schedule:Ruleset,
  {79388f36-c9e8-4990-8c02-d0a89e53f338}, !- Handle
  heating setpoint,                       !- Name
  {421b2fd1-ee77-42cb-9ace-1c2f340a53d7}, !- Schedule Type Limits Name
  {5e9a9bff-e867-4e8e-9105-31c3a7c9f979}; !- Default Day Schedule Name

OS:Schedule:Day,
  {5e9a9bff-e867-4e8e-9105-31c3a7c9f979}, !- Handle
  heating setpoint default day,           !- Name
  {421b2fd1-ee77-42cb-9ace-1c2f340a53d7}, !- Schedule Type Limits Name
  ,                                       !- Interpolate to Timestep
  24,                                     !- Hour 1
  0,                                      !- Minute 1
  0;                                      !- Value Until Time 1

OS:Schedule:Rule,
  {7ca85062-1303-400c-bc49-2c69a98da6fe}, !- Handle
  heating setpoint allday rule,           !- Name
  {79388f36-c9e8-4990-8c02-d0a89e53f338}, !- Schedule Ruleset Name
  0,                                      !- Rule Order
  {e63bd358-5341-49ea-b57f-ab7e3ed865f4}, !- Day Schedule Name
  Yes,                                    !- Apply Sunday
  Yes,                                    !- Apply Monday
  Yes,                                    !- Apply Tuesday
  Yes,                                    !- Apply Wednesday
  Yes,                                    !- Apply Thursday
  Yes,                                    !- Apply Friday
  Yes,                                    !- Apply Saturday
  DateRange,                              !- Date Specification Type
  1,                                      !- Start Month
  1,                                      !- Start Day
  12,                                     !- End Month
  31;                                     !- End Day

OS:Schedule:Day,
  {e63bd358-5341-49ea-b57f-ab7e3ed865f4}, !- Handle
  heating setpoint day,                   !- Name
  {421b2fd1-ee77-42cb-9ace-1c2f340a53d7}, !- Schedule Type Limits Name
  ,                                       !- Interpolate to Timestep
  24,                                     !- Hour 1
  0,                                      !- Minute 1
  20;                                     !- Value Until Time 1

OS:Schedule:Ruleset,
  {0dc74ac9-e05c-4418-92a2-4162a9e45415}, !- Handle
  cooling setpoint,                       !- Name
  {421b2fd1-ee77-42cb-9ace-1c2f340a53d7}, !- Schedule Type Limits Name
  {19796699-28a7-4c8a-8274-222f78fe286b}; !- Default Day Schedule Name

OS:Schedule:Day,
  {19796699-28a7-4c8a-8274-222f78fe286b}, !- Handle
  cooling setpoint default day,           !- Name
  {421b2fd1-ee77-42cb-9ace-1c2f340a53d7}, !- Schedule Type Limits Name
  ,                                       !- Interpolate to Timestep
  24,                                     !- Hour 1
  0,                                      !- Minute 1
  0;                                      !- Value Until Time 1

OS:Schedule:Rule,
  {fc080bb5-0482-41bc-bef2-8236d5456d63}, !- Handle
  cooling setpoint allday rule,           !- Name
  {0dc74ac9-e05c-4418-92a2-4162a9e45415}, !- Schedule Ruleset Name
  0,                                      !- Rule Order
  {21a9bda6-30ec-4321-b7c1-ecfba0562ee9}, !- Day Schedule Name
  Yes,                                    !- Apply Sunday
  Yes,                                    !- Apply Monday
  Yes,                                    !- Apply Tuesday
  Yes,                                    !- Apply Wednesday
  Yes,                                    !- Apply Thursday
  Yes,                                    !- Apply Friday
  Yes,                                    !- Apply Saturday
  DateRange,                              !- Date Specification Type
  1,                                      !- Start Month
  1,                                      !- Start Day
  12,                                     !- End Month
  31;                                     !- End Day

OS:Schedule:Day,
  {21a9bda6-30ec-4321-b7c1-ecfba0562ee9}, !- Handle
  cooling setpoint day,                   !- Name
  {421b2fd1-ee77-42cb-9ace-1c2f340a53d7}, !- Schedule Type Limits Name
  ,                                       !- Interpolate to Timestep
  24,                                     !- Hour 1
  0,                                      !- Minute 1
  25.5555555555556;                       !- Value Until Time 1

OS:ThermostatSetpoint:DualSetpoint,
  {9955e5f5-ed4b-4a97-96a5-756904d07542}, !- Handle
  conditioned space temperature setpoint, !- Name
  {79388f36-c9e8-4990-8c02-d0a89e53f338}, !- Heating Setpoint Temperature Schedule Name
  {0dc74ac9-e05c-4418-92a2-4162a9e45415}, !- Cooling Setpoint Temperature Schedule Name
  0;                                      !- Temperature Difference Between Cutout And Setpoint {deltaC}

OS:ScheduleTypeLimits,
  {421b2fd1-ee77-42cb-9ace-1c2f340a53d7}, !- Handle
  Temperature,                            !- Name
  ,                                       !- Lower Limit Value
  ,                                       !- Upper Limit Value
  Continuous,                             !- Numeric Type
  Temperature;                            !- Unit Type

OS:Surface,
  {afe21e6d-e9e1-44fa-ada3-a3ea599512cd}, !- Handle
  Roof1,                                  !- Name
  RoofCeiling,                            !- Surface Type
  {e2faafb8-5b87-4a41-8329-794c0d6dc14e}, !- Construction Name
  {2c1ddf42-2e51-4f07-a8c7-288abb17b848}, !- Space Name
  Outdoors,                               !- Outside Boundary Condition
  ,                                       !- Outside Boundary Condition Object
  SunExposed,                             !- Sun Exposure
  WindExposed,                            !- Wind Exposure
  ,                                       !- View Factor to Ground
  ,                                       !- Number of Vertices
  -26.9347048849634, 58.0557891618865, 2.4384, !- X,Y,Z Vertex 1 {m}
  -26.9347048849634, 46.7895631136661, 8.0715130241102, !- X,Y,Z Vertex 2 {m}
  -14.3386812381136, 46.7895631136661, 8.0715130241102, !- X,Y,Z Vertex 3 {m}
  -14.3386812381136, 58.0557891618865, 2.4384; !- X,Y,Z Vertex 4 {m}

OS:AdditionalProperties,
  {61563ffd-512d-4120-9518-1a464c15c58c}, !- Handle
  {afe21e6d-e9e1-44fa-ada3-a3ea599512cd}, !- Object Name
  Length,                                 !- Feature Name 1
  Double,                                 !- Feature Data Type 1
  41.325536899113608,                     !- Feature Value 1
  Width,                                  !- Feature Name 2
  Double,                                 !- Feature Data Type 2
  41.325536899113601,                     !- Feature Value 2
  Azimuth,                                !- Feature Name 3
  Integer,                                !- Feature Data Type 3
  0,                                      !- Feature Value 3
  Tilt,                                   !- Feature Name 4
  Double,                                 !- Feature Data Type 4
  0.5,                                    !- Feature Value 4
  SurfaceType,                            !- Feature Name 5
  String,                                 !- Feature Data Type 5
  Roof;                                   !- Feature Value 5

OS:ThermalZone,
  {945320a1-af66-43f1-bec5-f6d3d36b4729}, !- Handle
  attic - vented,                         !- Name
  1,                                      !- Multiplier
  ,                                       !- Ceiling Height {m}
  356.390921899745,                       !- Volume {m3}
  ,                                       !- Floor Area {m2}
  ,                                       !- Zone Inside Convection Algorithm
  ,                                       !- Zone Outside Convection Algorithm
  ,                                       !- Zone Conditioning Equipment List Name
  {2931c21b-3947-4a9a-a9ae-1c23b0d8d300}, !- Zone Air Inlet Port List
  {902a8ca6-6b85-4fc0-b699-3d0e1ad482a5}, !- Zone Air Exhaust Port List
  {aa71cd66-948c-41a3-a632-c358f3f07d6f}, !- Zone Air Node Name
  {4cd58044-bc1b-49a5-9383-80e6b6837580}, !- Zone Return Air Port List
  ,                                       !- Primary Daylighting Control Name
  ,                                       !- Fraction of Zone Controlled by Primary Daylighting Control
  ,                                       !- Secondary Daylighting Control Name
  ,                                       !- Fraction of Zone Controlled by Secondary Daylighting Control
  ,                                       !- Illuminance Map Name
  ,                                       !- Group Rendering Name
  ,                                       !- Thermostat Name
  No;                                     !- Use Ideal Air Loads

OS:Node,
  {42f86893-092f-4ca9-a18e-7e9b1c381986}, !- Handle
  Node 2,                                 !- Name
  {aa71cd66-948c-41a3-a632-c358f3f07d6f}, !- Inlet Port
  ;                                       !- Outlet Port

OS:Connection,
  {aa71cd66-948c-41a3-a632-c358f3f07d6f}, !- Handle
  {945320a1-af66-43f1-bec5-f6d3d36b4729}, !- Source Object
  11,                                     !- Outlet Port
  {42f86893-092f-4ca9-a18e-7e9b1c381986}, !- Target Object
  2;                                      !- Inlet Port

OS:PortList,
  {2931c21b-3947-4a9a-a9ae-1c23b0d8d300}, !- Handle
  {945320a1-af66-43f1-bec5-f6d3d36b4729}; !- HVAC Component

OS:PortList,
  {902a8ca6-6b85-4fc0-b699-3d0e1ad482a5}, !- Handle
  {945320a1-af66-43f1-bec5-f6d3d36b4729}; !- HVAC Component

OS:PortList,
  {4cd58044-bc1b-49a5-9383-80e6b6837580}, !- Handle
  {945320a1-af66-43f1-bec5-f6d3d36b4729}; !- HVAC Component

OS:Sizing:Zone,
  {7e4290bb-f6d0-4841-b635-f158b6c144af}, !- Handle
  {945320a1-af66-43f1-bec5-f6d3d36b4729}, !- Zone or ZoneList Name
  SupplyAirTemperature,                   !- Zone Cooling Design Supply Air Temperature Input Method
  14,                                     !- Zone Cooling Design Supply Air Temperature {C}
  11.11,                                  !- Zone Cooling Design Supply Air Temperature Difference {deltaC}
  SupplyAirTemperature,                   !- Zone Heating Design Supply Air Temperature Input Method
  40,                                     !- Zone Heating Design Supply Air Temperature {C}
  11.11,                                  !- Zone Heating Design Supply Air Temperature Difference {deltaC}
  0.0085,                                 !- Zone Cooling Design Supply Air Humidity Ratio {kg-H2O/kg-air}
  0.008,                                  !- Zone Heating Design Supply Air Humidity Ratio {kg-H2O/kg-air}
  ,                                       !- Zone Heating Sizing Factor
  ,                                       !- Zone Cooling Sizing Factor
  DesignDay,                              !- Cooling Design Air Flow Method
  ,                                       !- Cooling Design Air Flow Rate {m3/s}
  ,                                       !- Cooling Minimum Air Flow per Zone Floor Area {m3/s-m2}
  ,                                       !- Cooling Minimum Air Flow {m3/s}
  ,                                       !- Cooling Minimum Air Flow Fraction
  DesignDay,                              !- Heating Design Air Flow Method
  ,                                       !- Heating Design Air Flow Rate {m3/s}
  ,                                       !- Heating Maximum Air Flow per Zone Floor Area {m3/s-m2}
  ,                                       !- Heating Maximum Air Flow {m3/s}
  ,                                       !- Heating Maximum Air Flow Fraction
  No,                                     !- Account for Dedicated Outdoor Air System
  NeutralSupplyAir,                       !- Dedicated Outdoor Air System Control Strategy
  autosize,                               !- Dedicated Outdoor Air Low Setpoint Temperature for Design {C}
  autosize,                               !- Dedicated Outdoor Air High Setpoint Temperature for Design {C}
  Sensible Load Only No Latent Load,      !- Zone Load Sizing Method
  HumidityRatioDifference,                !- Zone Latent Cooling Design Supply Air Humidity Ratio Input Method
  ,                                       !- Zone Dehumidification Design Supply Air Humidity Ratio {kgWater/kgDryAir}
  0.005,                                  !- Zone Cooling Design Supply Air Humidity Ratio Difference {kgWater/kgDryAir}
  HumidityRatioDifference,                !- Zone Latent Heating Design Supply Air Humidity Ratio Input Method
  ,                                       !- Zone Humidification Design Supply Air Humidity Ratio {kgWater/kgDryAir}
  0.005,                                  !- Zone Humidification Design Supply Air Humidity Ratio Difference {kgWater/kgDryAir}
  ,                                       !- Zone Humidistat Dehumidification Set Point Schedule Name
  ,                                       !- Zone Humidistat Humidification Set Point Schedule Name
  ,                                       !- Design Zone Air Distribution Effectiveness in Cooling Mode
  ,                                       !- Design Zone Air Distribution Effectiveness in Heating Mode
  ,                                       !- Design Zone Secondary Recirculation Fraction {dimensionless}
  ,                                       !- Design Minimum Zone Ventilation Efficiency {dimensionless}
  Coincident;                             !- Sizing Option

OS:ZoneHVAC:EquipmentList,
  {0c7f9d2e-b6ec-4f2c-a299-194c463ed841}, !- Handle
  Zone HVAC Equipment List 2,             !- Name
  {945320a1-af66-43f1-bec5-f6d3d36b4729}; !- Thermal Zone

OS:AdditionalProperties,
  {09758aba-7c6b-4150-b068-51728ea9e535}, !- Handle
  {945320a1-af66-43f1-bec5-f6d3d36b4729}, !- Object Name
  ObjectType,                             !- Feature Name 1
  String,                                 !- Feature Data Type 1
  attic - vented;                         !- Feature Value 1

OS:Space,
  {2c1ddf42-2e51-4f07-a8c7-288abb17b848}, !- Handle
  attic - vented 1,                       !- Name
  ,                                       !- Space Type Name
  ,                                       !- Default Construction Set Name
  ,                                       !- Default Schedule Set Name
  ,                                       !- Direction of Relative North {deg}
  ,                                       !- X Origin {m}
  ,                                       !- Y Origin {m}
  ,                                       !- Z Origin {m}
  ,                                       !- Building Story Name
  {945320a1-af66-43f1-bec5-f6d3d36b4729}, !- Thermal Zone Name
  ,                                       !- Part of Total Floor Area
  ,                                       !- Design Specification Outdoor Air Object Name
  ,                                       !- Building Unit Name
  356.390921899745;                       !- Volume {m3}

OS:Material,
  {e3f7e551-8812-4f7d-8132-9b704d0a79a9}, !- Handle
  asphalt or fiberglass shingles,         !- Name
  Rough,                                  !- Roughness
  0.00635,                                !- Thickness {m}
  0.162714,                               !- Conductivity {W/m-K}
  1121.4,                                 !- Density {kg/m3}
  1465.45,                                !- Specific Heat {J/kg-K}
  0.9,                                    !- Thermal Absorptance
  0.85,                                   !- Solar Absorptance