
OS:Version,
  {f4cc5648-a664-426e-8d92-d5114e9ac1ea}, !- Handle
  3.9.0;                                  !- Version Identifier

OS:SimulationControl,
  {40df3db3-4fd4-4927-989e-068880f6c15c}, !- Handle
  ,                                       !- Do Zone Sizing Calculation
  ,                                       !- Do System Sizing Calculation
  ,                                       !- Do Plant Sizing Calculation
  No;                                     !- Run Simulation for Sizing Periods

OS:Timestep,
  {2db1a09d-255f-47d6-a414-ce6ac9858edd}, !- Handle
  1;                                      !- Number of Timesteps per Hour

OS:ShadowCalculation,
  {224f722e-49b2-4574-9d58-88ebbd2df462}, !- Handle
  PolygonClipping,                        !- Shading Calculation Method
  ,                                       !- Shading Calculation Update Frequency Method
  20,                                     !- Shading Calculation Update Frequency
  200,                                    !- Maximum Figures in Shadow Overlap Calculations
  ,                                       !- Polygon Clipping Algorithm
  512,                                    !- Pixel Counting Resolution
  ,                                       !- Sky Diffuse Modeling Algorithm
  No,                                     !- Output External Shading Calculation Results
  No,                                     !- Disable Self-Shading Within Shading Zone Groups
  No;                                     !- Disable Self-Shading From Shading Zone Groups to Other Zones

OS:SurfaceConvectionAlgorithm:Outside,
  {72ee5380-1b5c-4a76-afb1-ea72ee5ea785}, !- Handle
  DOE-2;                                  !- Algorithm

OS:SurfaceConvectionAlgorithm:Inside,
  {86e81ebc-1c9b-44c6-a141-d4a4c90939b4}, !- Handle
  TARP;                                   !- Algorithm

OS:ZoneCapacitanceMultiplier:ResearchSpecial,
  {8855554a-b85a-4f25-8c30-a8613528fa2f}, !- Handle
  7,                                      !- Temperature Capacity Multiplier
  15,                                     !- Humidity Capacity Multiplier
  ;                                       !- Carbon Dioxide Capacity Multiplier

OS:ConvergenceLimits,
  {e33d662e-3920-4f48-bcad-3210668076a7}, !- Handle
  0;                                      !- Minimum System Timestep {minutes}

OS:RunPeriod,
  {0e1e8432-2fb5-41dc-a02e-d12c408419e1}, !- Handle
  Run Period 1,                           !- Name
  1,                                      !- Begin Month
  1,                                      !- Begin Day of Month
  12,                                     !- End Month
  31,                                     !- End Day of Month
  ,                                       !- Use Weather File Holidays and Special Days
  ,                                       !- Use Weather File Daylight Saving Period
  ,                                       !- Apply Weekend Holiday Rule
  ,                                       !- Use Weather File Rain Indicators
  ,                                       !- Use Weather File Snow Indicators
  ;                                       !- Number of Times Runperiod to be Repeated

OS:PerformancePrecisionTradeoffs,
  {41e390db-dded-4a88-9707-276d455c607e}, !- Handle
  ,                                       !- Use Coil Direct Solutions
  CarrollMRT;                             !- Zone Radiant Exchange Algorithm

OS:WeatherFile,
  {6fc18c19-5d64-4825-93c0-148d9782331e}, !- Handle
  Buffalo Niagara Intl Ap,                !- City
  NY,                                     !- State Province Region
  USA,                                    !- Country
  TMY3,                                   !- Data Source
  725280,                                 !- WMO Number
  42.93,                                  !- Latitude {deg}
  -78.73,                                 !- Longitude {deg}
  -5,                                     !- Time Zone {hr}
  215,                                    !- Elevation {m}
  /Users/nmoore/github/urbanopt-example-geojson-project/example_project/weather/USA_NY_Buffalo-Greater.Buffalo.Intl.AP.725280_TMY3.epw, !- Url
  6B50E0FF,                               !- Checksum
  ,                                       !- Start Date Actual Year
  Sunday;                                 !- Start Day of Week

OS:YearDescription,
  {76885452-aa19-4a47-b550-542b0d9aadd6}, !- Handle
  2007,                                   !- Calendar Year
  ,                                       !- Day of Week for Start Day
  ;                                       !- Is Leap Year

OS:Site,
  {a56991b6-10a0-46d0-a07b-746fa8ed5b82}, !- Handle
  Buffalo Niagara Intl Ap_NY,             !- Name
  42.93,                                  !- Latitude {deg}
  -78.73,                                 !- Longitude {deg}
  -5,                                     !- Time Zone {hr}
  215,                                    !- Elevation {m}
  Suburbs,                                !- Terrain
  Yes;                                    !- Keep Site Location Information

OS:RunPeriodControl:DaylightSavingTime,
  {4513e65f-23aa-495d-986d-e5216771020f}, !- Handle
  Mar 12,                                 !- Start Date
  Nov 5;                                  !- End Date

OS:Site:GroundTemperature:Shallow,
  {64d15f2c-4d8b-4211-b8e9-e5bd4fe3ae6d}, !- Handle
  4.30207395723828,                       !- January Surface Ground Temperature {C}
  2.29327249652502,                       !- February Surface Ground Temperature {C}
  2.13240047156047,                       !- March Surface Ground Temperature {C}
  3.08567940719286,                       !- April Surface Ground Temperature {C}
  6.91256312497526,                       !- May Surface Ground Temperature {C}
  10.7216195949507,                       !- June Surface Ground Temperature {C}
  14.0238679822574,                       !- July Surface Ground Temperature {C}
  16.1157611184724,                       !- August Surface Ground Temperature {C}
  16.2934789303462,                       !- September Surface Ground Temperature {C}
  14.5920754632847,                       !- October Surface Ground Temperature {C}
  11.374036348653,                        !- November Surface Ground Temperature {C}
  7.68182621661674;                       !- December Surface Ground Temperature {C}

OS:ThermalZone,
  {e805af87-599c-4686-9572-2cb9345ff507}, !- Handle
  conditioned space,                      !- Name
  1,                                      !- Multiplier
  ,                                       !- Ceiling Height {m}
  692.06373070848,                        !- Volume {m3}
  ,                                       !- Floor Area {m2}
  ,                                       !- Zone Inside Convection Algorithm
  ,                                       !- Zone Outside Convection Algorithm
  ,                                       !- Zone Conditioning Equipment List Name
  {7791fe59-934d-45df-87cf-09cad1d76b8a}, !- Zone Air Inlet Port List
  {694f6c92-0949-412f-81b3-11f4f4eb00e0}, !- Zone Air Exhaust Port List
  {9b4d5e77-8060-46e0-bcd0-9fab994a46ee}, !- Zone Air Node Name
  {8bd143ab-c18f-4e2d-9dcd-ee82a9676bb3}, !- Zone Return Air Port List
  ,                                       !- Primary Daylighting Control Name
  ,                                       !- Fraction of Zone Controlled by Primary Daylighting Control
  ,                                       !- Secondary Daylighting Control Name
  ,                                       !- Fraction of Zone Controlled by Secondary Daylighting Control
  ,                                       !- Illuminance Map Name
  ,                                       !- Group Rendering Name
  {19e59a8c-61d6-4e30-8b50-c93bb8a1bad1}, !- Thermostat Name
  No;                                     !- Use Ideal Air Loads

OS:Node,
  {7bd83ebb-6be1-4843-a70e-8cd90ed33b04}, !- Handle
  Node 1,                                 !- Name
  {9b4d5e77-8060-46e0-bcd0-9fab994a46ee}, !- Inlet Port
  ;                                       !- Outlet Port

OS:Connection,
  {9b4d5e77-8060-46e0-bcd0-9fab994a46ee}, !- Handle
  {e805af87-599c-4686-9572-2cb9345ff507}, !- Source Object
  11,                                     !- Outlet Port
  {7bd83ebb-6be1-4843-a70e-8cd90ed33b04}, !- Target Object
  2;                                      !- Inlet Port

OS:PortList,
  {7791fe59-934d-45df-87cf-09cad1d76b8a}, !- Handle
  {e805af87-599c-4686-9572-2cb9345ff507}, !- HVAC Component
  {99bc2dfb-bdce-4dac-b2bd-2f9b78c38f65}; !- Port 1

OS:PortList,
  {694f6c92-0949-412f-81b3-11f4f4eb00e0}, !- Handle
  {e805af87-599c-4686-9572-2cb9345ff507}; !- HVAC Component

OS:PortList,
  {8bd143ab-c18f-4e2d-9dcd-ee82a9676bb3}, !- Handle
  {e805af87-599c-4686-9572-2cb9345ff507}, !- HVAC Component
  {78250623-6da1-4071-9293-e756a22751ba}; !- Port 1

OS:Sizing:Zone,
  {e2b26e9b-86c7-4e52-a593-1dae597fffa8}, !- Handle
  {e805af87-599c-4686-9572-2cb9345ff507}, !- Zone or ZoneList Name
  SupplyAirTemperature,                   !- Zone Cooling Design Supply Air Temperature Input Method
  14,                                     !- Zone Cooling Design Supply Air Temperature {C}
  11.11,                                  !- Zone Cooling Design Supply Air Temperature Difference {deltaC}
  SupplyAirTemperature,                   !- Zone Heating Design Supply Air Temperature Input Method
  40,                                     !- Zone Heating Design Supply Air Temperature {C}
  11.11,                                  !- Zone Heating Design Supply Air Temperature Difference {deltaC}
  0.0085,                                 !- Zone Cooling Design Supply Air Humidity Ratio {kg-H2O/kg-air}
  0.008,                                  !- Zone Heating Design Supply Air Humidity Ratio {kg-H2O/kg-air}
  ,                                       !- Zone Heating Sizing Factor
  ,                                       !- Zone Cooling Sizing Factor
  DesignDay,                              !- Cooling Design Air Flow Method
  ,                                       !- Cooling Design Air Flow Rate {m3/s}
  ,                                       !- Cooling Minimum Air Flow per Zone Floor Area {m3/s-m2}
  ,                                       !- Cooling Minimum Air Flow {m3/s}
  ,                                       !- Cooling Minimum Air Flow Fraction
  DesignDay,                              !- Heating Design Air Flow Method
  ,                                       !- Heating Design Air Flow Rate {m3/s}
  ,                                       !- Heating Maximum Air Flow per Zone Floor Area {m3/s-m2}
  ,                                       !- Heating Maximum Air Flow {m3/s}
  ,                                       !- Heating Maximum Air Flow Fraction
  No,                                     !- Account for Dedicated Outdoor Air System
  NeutralSupplyAir,                       !- Dedicated Outdoor Air System Control Strategy
  autosize,                               !- Dedicated Outdoor Air Low Setpoint Temperature for Design {C}
  autosize,                               !- Dedicated Outdoor Air High Setpoint Temperature for Design {C}
  Sensible Load Only No Latent Load,      !- Zone Load Sizing Method
  HumidityRatioDifference,                !- Zone Latent Cooling Design Supply Air Humidity Ratio Input Method
  ,                                       !- Zone Dehumidification Design Supply Air Humidity Ratio {kgWater/kgDryAir}
  0.005,                                  !- Zone Cooling Design Supply Air Humidity Ratio Difference {kgWater/kgDryAir}
  HumidityRatioDifference,                !- Zone Latent Heating Design Supply Air Humidity Ratio Input Method
  ,                                       !- Zone Humidification Design Supply Air Humidity Ratio {kgWater/kgDryAir}
  0.005,                                  !- Zone Humidification Design Supply Air Humidity Ratio Difference {kgWater/kgDryAir}
  ,                                       !- Zone Humidistat Dehumidification Set Point Schedule Name
  ,                                       !- Zone Humidistat Humidification Set Point Schedule Name
  ,                                       !- Design Zone Air Distribution Effectiveness in Cooling Mode
  ,                                       !- Design Zone Air Distribution Effectiveness in Heating Mode
  ,                                       !- Design Zone Secondary Recirculation Fraction {dimensionless}
  ,                                       !- Design Minimum Zone Ventilation Efficiency {dimensionless}
  Coincident;                             !- Sizing Option

OS:ZoneHVAC:EquipmentList,
  {3712bc1b-287f-42c6-bbf7-93dc57ffcb5b}, !- Handle
  Zone HVAC Equipment List 1,             !- Name
  {e805af87-599c-4686-9572-2cb9345ff507}, !- Thermal Zone
  ,                                       !- Load Distribution Scheme
  {9d8f15cd-55ea-4dbb-9de4-01c235bd5bd3}, !- Zone Equipment 1
  1,                                      !- Zone Equipment Cooling Sequence 1
  1,                                      !- Zone Equipment Heating or No-Load Sequence 1
  {96171570-7fd4-46bf-bcd5-383c1b8ef724}, !- Zone Equipment Sequential Cooling Fraction Schedule Name 1
  {b1226f07-76e8-4c36-b970-faa4a9df41db}; !- Zone Equipment Sequential Heating Fraction Schedule Name 1

OS:AdditionalProperties,
  {c9aa61c3-c06d-41e1-86cb-332134a6dbfa}, !- Handle
  {e805af87-599c-4686-9572-2cb9345ff507}, !- Object Name
  ObjectType,                             !- Feature Name 1
  String,                                 !- Feature Data Type 1
  conditioned space;                      !- Feature Value 1

OS:Space,
  {6c1b3691-59f7-4901-92d5-0f065a7c6a9e}, !- Handle
  conditioned space 1,                    !- Name
  ,                                       !- Space Type Name
  ,                                       !- Default Construction Set Name
  ,                                       !- Default Schedule Set Name
  ,                                       !- Direction of Relative North {deg}
  ,                                       !- X Origin {m}
  ,                                       !- Y Origin {m}
  ,                                       !- Z Origin {m}
  ,                                       !- Building Story Name
  {e805af87-599c-4686-9572-2cb9345ff507}, !- Thermal Zone Name
  ,                                       !- Part of Total Floor Area
  ,                                       !- Design Specification Outdoor Air Object Name
  ,                                       !- Building Unit Name
  692.06373070848;                        !- Volume {m3}

OS:Schedule:Ruleset,
  {363db020-6ec2-4d1c-ac12-da1f854d23fb}, !- Handle
  heating setpoint,                       !- Name
  {4b343828-af4d-4729-95eb-580e1c7974bf}, !- Schedule Type Limits Name
  {5fee341b-d2f6-4883-9e15-359373759a0c}; !- Default Day Schedule Name

OS:Schedule:Day,
  {5fee341b-d2f6-4883-9e15-359373759a0c}, !- Handle
  heating setpoint default day,           !- Name
  {4b343828-af4d-4729-95eb-580e1c7974bf}, !- Schedule Type Limits Name
  ,                                       !- Interpolate to Timestep
  24,                                     !- Hour 1
  0,                                      !- Minute 1
  0;                                      !- Value Until Time 1

OS:Schedule:Rule,
  {a038ca9b-0796-4bd4-aa40-11e90cfeaed4}, !- Handle
  heating setpoint allday rule,           !- Name
  {363db020-6ec2-4d1c-ac12-da1f854d23fb}, !- Schedule Ruleset Name
  0,                                      !- Rule Order
  {33dfbdb6-5cda-49cc-8024-6c4a17e535bb}, !- Day Schedule Name
  Yes,                                    !- Apply Sunday
  Yes,                                    !- Apply Monday
  Yes,                                    !- Apply Tuesday
  Yes,                                    !- Apply Wednesday
  Yes,                                    !- Apply Thursday
  Yes,                                    !- Apply Friday
  Yes,                                    !- Apply Saturday
  DateRange,                              !- Date Specification Type
  1,                                      !- Start Month
  1,                                      !- Start Day
  12,                                     !- End Month
  31;                                     !- End Day

OS:Schedule:Day,
  {33dfbdb6-5cda-49cc-8024-6c4a17e535bb}, !- Handle
  heating setpoint day,                   !- Name
  {4b343828-af4d-4729-95eb-580e1c7974bf}, !- Schedule Type Limits Name
  ,                                       !- Interpolate to Timestep
  24,                                     !- Hour 1
  0,                                      !- Minute 1
  20;                                     !- Value Until Time 1

OS:Schedule:Ruleset,
  {d5d89249-4963-4b96-bdd3-84d559d5260b}, !- Handle
  cooling setpoint,                       !- Name
  {4b343828-af4d-4729-95eb-580e1c7974bf}, !- Schedule Type Limits Name
  {70b63687-c28f-4e80-9307-c4ed98f58a1a}; !- Default Day Schedule Name

OS:Schedule:Day,
  {70b63687-c28f-4e80-9307-c4ed98f58a1a}, !- Handle
  cooling setpoint default day,           !- Name
  {4b343828-af4d-4729-95eb-580e1c7974bf}, !- Schedule Type Limits Name
  ,                                       !- Interpolate to Timestep
  24,                                     !- Hour 1
  0,                                      !- Minute 1
  0;                                      !- Value Until Time 1

OS:Schedule:Rule,
  {6b120c4a-0b95-4ee7-b378-ab9c8a07650e}, !- Handle
  cooling setpoint allday rule,           !- Name
  {d5d89249-4963-4b96-bdd3-84d559d5260b}, !- Schedule Ruleset Name
  0,                                      !- Rule Order
  {4192d78d-0401-4134-9e81-dcc6dcbe4e43}, !- Day Schedule Name
  Yes,                                    !- Apply Sunday
  Yes,                                    !- Apply Monday
  Yes,                                    !- Apply Tuesday
  Yes,                                    !- Apply Wednesday
  Yes,                                    !- Apply Thursday
  Yes,                                    !- Apply Friday
  Yes,                                    !- Apply Saturday
  DateRange,                              !- Date Specification Type
  1,                                      !- Start Month
  1,                                      !- Start Day
  12,                                     !- End Month
  31;                                     !- End Day

OS:Schedule:Day,
  {4192d78d-0401-4134-9e81-dcc6dcbe4e43}, !- Handle
  cooling setpoint day,                   !- Name
  {4b343828-af4d-4729-95eb-580e1c7974bf}, !- Schedule Type Limits Name
  ,                                       !- Interpolate to Timestep
  24,                                     !- Hour 1
  0,                                      !- Minute 1
  25.5555555555556;                       !- Value Until Time 1

OS:ThermostatSetpoint:DualSetpoint,
  {19e59a8c-61d6-4e30-8b50-c93bb8a1bad1}, !- Handle
  conditioned space temperature setpoint, !- Name
  {363db020-6ec2-4d1c-ac12-da1f854d23fb}, !- Heating Setpoint Temperature Schedule Name
  {d5d89249-4963-4b96-bdd3-84d559d5260b}, !- Cooling Setpoint Temperature Schedule Name
  0;                                      !- Temperature Difference Between Cutout And Setpoint {deltaC}

OS:ScheduleTypeLimits,
  {4b343828-af4d-4729-95eb-580e1c7974bf}, !- Handle
  Temperature,                            !- Name
  ,                                       !- Lower Limit Value
  ,                                       !- Upper Limit Value
  Continuous,                             !- Numeric Type
  Temperature;                            !- Unit Type

OS:Surface,
  {b529c1a2-212b-4a3a-a657-1969cff774df}, !- Handle
  Roof1,                                  !- Name
  RoofCeiling,                            !- Surface Type
  {cd0e0032-e003-47a4-8292-ddd3157c1535}, !- Construction Name
  {2e243d5c-a0d7-4b4b-9cf0-4d10f19af74e}, !- Space Name
  Outdoors,                               !- Outside Boundary Condition
  ,                                       !- Outside Boundary Condition Object
  SunExposed,                             !- Sun Exposure
  WindExposed,                            !- Wind Exposure
  ,                                       !- View Factor to Ground
  ,                                       !- Number of Vertices
  -26.9347048849634, 58.0557891618865, 2.4384, !- X,Y,Z Vertex 1 {m}
  -26.9347048849634, 46.7895631136661, 8.0715130241102, !- X,Y,Z Vertex 2 {m}
  -14.3386812381136, 46.7895631136661, 8.0715130241102, !- X,Y,Z Vertex 3 {m}
  -14.3386812381136, 58.0557891618865, 2.4384; !- X,Y,Z Vertex 4 {m}

OS:AdditionalProperties,
  {173deb12-6c23-450e-a356-806bc6aa117f}, !- Handle
  {b529c1a2-212b-4a3a-a657-1969cff774df}, !- Object Name
  Length,                                 !- Feature Name 1
  Double,                                 !- Feature Data Type 1
  41.325536899113608,                     !- Feature Value 1
  Width,                                  !- Feature Name 2
  Double,                                 !- Feature Data Type 2
  41.325536899113601,                     !- Feature Value 2
  Azimuth,                                !- Feature Name 3
  Integer,                                !- Feature Data Type 3
  0,                                      !- Feature Value 3
  Tilt,                                   !- Feature Name 4
  Double,                                 !- Feature Data Type 4
  0.5,                                    !- Feature Value 4
  SurfaceType,                            !- Feature Name 5
  String,                                 !- Feature Data Type 5
  Roof;                                   !- Feature Value 5

OS:ThermalZone,
  {2747620d-420c-4d63-8eba-18240a1b032f}, !- Handle
  attic - vented,                         !- Name
  1,                                      !- Multiplier
  ,                                       !- Ceiling Height {m}
  356.389957095237,                       !- Volume {m3}
  ,                                       !- Floor Area {m2}
  ,                                       !- Zone Inside Convection Algorithm
  ,                                       !- Zone Outside Convection Algorithm
  ,                                       !- Zone Conditioning Equipment List Name
  {2b1307ec-c712-45f9-a23e-e3798120ba40}, !- Zone Air Inlet Port List
  {fb3de8e6-dc02-4f65-8de7-27b9c81104e8}, !- Zone Air Exhaust Port List
  {83d0dc01-38ec-4bda-acc6-0038bb8f0da9}, !- Zone Air Node Name
  {0b2c93d2-0fdb-4fd6-a8e3-427c6a79ca13}, !- Zone Return Air Port List
  ,                                       !- Primary Daylighting Control Name
  ,                                       !- Fraction of Zone Controlled by Primary Daylighting Control
  ,                                       !- Secondary Daylighting Control Name
  ,                                       !- Fraction of Zone Controlled by Secondary Daylighting Control
  ,                                       !- Illuminance Map Name
  ,                                       !- Group Rendering Name
  ,                                       !- Thermostat Name
  No;                                     !- Use Ideal Air Loads

OS:Node,
  {92ecd541-e6b3-45f0-befe-1926118941ae}, !- Handle
  Node 2,                                 !- Name
  {83d0dc01-38ec-4bda-acc6-0038bb8f0da9}, !- Inlet Port
  ;                                       !- Outlet Port

OS:Connection,
  {83d0dc01-38ec-4bda-acc6-0038bb8f0da9}, !- Handle
  {2747620d-420c-4d63-8eba-18240a1b032f}, !- Source Object
  11,                                     !- Outlet Port
  {92ecd541-e6b3-45f0-befe-1926118941ae}, !- Target Object
  2;                                      !- Inlet Port

OS:PortList,
  {2b1307ec-c712-45f9-a23e-e3798120ba40}, !- Handle
  {2747620d-420c-4d63-8eba-18240a1b032f}; !- HVAC Component

OS:PortList,
  {fb3de8e6-dc02-4f65-8de7-27b9c81104e8}, !- Handle
  {2747620d-420c-4d63-8eba-18240a1b032f}; !- HVAC Component

OS:PortList,
  {0b2c93d2-0fdb-4fd6-a8e3-427c6a79ca13}, !- Handle
  {2747620d-420c-4d63-8eba-18240a1b032f}; !- HVAC Component

OS:Sizing:Zone,
  {f609c5d4-d9fd-4cc3-810c-44fd11f8b66e}, !- Handle
  {2747620d-420c-4d63-8eba-18240a1b032f}, !- Zone or ZoneList Name
  SupplyAirTemperature,                   !- Zone Cooling Design Supply Air Temperature Input Method
  14,                                     !- Zone Cooling Design Supply Air Temperature {C}
  11.11,                                  !- Zone Cooling Design Supply Air Temperature Difference {deltaC}
  SupplyAirTemperature,                   !- Zone Heating Design Supply Air Temperature Input Method
  40,                                     !- Zone Heating Design Supply Air Temperature {C}
  11.11,                                  !- Zone Heating Design Supply Air Temperature Difference {deltaC}
  0.0085,                                 !- Zone Cooling Design Supply Air Humidity Ratio {kg-H2O/kg-air}
  0.008,                                  !- Zone Heating Design Supply Air Humidity Ratio {kg-H2O/kg-air}
  ,                                       !- Zone Heating Sizing Factor
  ,                                       !- Zone Cooling Sizing Factor
  DesignDay,                              !- Cooling Design Air Flow Method
  ,                                       !- Cooling Design Air Flow Rate {m3/s}
  ,                                       !- Cooling Minimum Air Flow per Zone Floor Area {m3/s-m2}
  ,                                       !- Cooling Minimum Air Flow {m3/s}
  ,                                       !- Cooling Minimum Air Flow Fraction
  DesignDay,                              !- Heating Design Air Flow Method
  ,                                       !- Heating Design Air Flow Rate {m3/s}
  ,                                       !- Heating Maximum Air Flow per Zone Floor Area {m3/s-m2}
  ,                                       !- Heating Maximum Air Flow {m3/s}
  ,                                       !- Heating Maximum Air Flow Fraction
  No,                                     !- Account for Dedicated Outdoor Air System
  NeutralSupplyAir,                       !- Dedicated Outdoor Air System Control Strategy
  autosize,                               !- Dedicated Outdoor Air Low Setpoint Temperature for Design {C}
  autosize,                               !- Dedicated Outdoor Air High Setpoint Temperature for Design {C}
  Sensible Load Only No Latent Load,      !- Zone Load Sizing Method
  HumidityRatioDifference,                !- Zone Latent Cooling Design Supply Air Humidity Ratio Input Method
  ,                                       !- Zone Dehumidification Design Supply Air Humidity Ratio {kgWater/kgDryAir}
  0.005,                                  !- Zone Cooling Design Supply Air Humidity Ratio Difference {kgWater/kgDryAir}
  HumidityRatioDifference,                !- Zone Latent Heating Design Supply Air Humidity Ratio Input Method
  ,                                       !- Zone Humidification Design Supply Air Humidity Ratio {kgWater/kgDryAir}
  0.005,                                  !- Zone Humidification Design Supply Air Humidity Ratio Difference {kgWater/kgDryAir}
  ,                                       !- Zone Humidistat Dehumidification Set Point Schedule Name
  ,                                       !- Zone Humidistat Humidification Set Point Schedule Name
  ,                                       !- Design Zone Air Distribution Effectiveness in Cooling Mode
  ,                                       !- Design Zone Air Distribution Effectiveness in Heating Mode
  ,                                       !- Design Zone Secondary Recirculation Fraction {dimensionless}
  ,                                       !- Design Minimum Zone Ventilation Efficiency {dimensionless}
  Coincident;                             !- Sizing Option

OS:ZoneHVAC:EquipmentList,
  {5c32943f-1b1d-4487-9ffd-68729dcb1c7c}, !- Handle
  Zone HVAC Equipment List 2,             !- Name
  {2747620d-420c-4d63-8eba-18240a1b032f}; !- Thermal Zone

OS:AdditionalProperties,
  {75cc88ed-4bda-43ce-8a37-fd8ceea1e7ff}, !- Handle
  {2747620d-420c-4d63-8eba-18240a1b032f}, !- Object Name
  ObjectType,                             !- Feature Name 1
  String,                                 !- Feature Data Type 1
  attic - vented;                         !- Feature Value 1

OS:Space,
  {2e243d5c-a0d7-4b4b-9cf0-4d10f19af74e}, !- Handle
  attic - vented 1,                       !- Name
  ,                                       !- Space Type Name
  ,                                       !- Default Construction Set Name
  ,                                       !- Default Schedule Set Name
  ,                                       !- Direction of Relative North {deg}
  ,                                       !- X Origin {m}
  ,                                       !- Y Origin {m}
  ,                                       !- Z Origin {m}
  ,                                       !- Building Story Name
  {2747620d-420c-4d63-8eba-18240a1b032f}, !- Thermal Zone Name
  ,                                       !- Part of Total Floor Area
  ,                                       !- Design Specification Outdoor Air Object Name
  ,                                       !- Building Unit Name
  356.389957095237;                       !- Volume {m3}

OS:Material,
  {fca96f27-5661-43ab-bd7a-f882667bd428}, !- Handle
  asphalt or fiberglass shingles,         !- Name
  Rough,                                  !- Roughness
  0.00635,                                !- Thickness {m}
  0.162714,                               !- Conductivity {W/m-K}
  1121.4,                                 !- Density {kg/m3}
  1465.45,                                !- Specific Heat {J/kg-K}
  0.9,                                    !- Thermal Absorptance
  0.85,                                   !- Solar Absorptance