
OS:Version,
  {adfc077c-c904-4d81-9628-c3acc21dde92}, !- Handle
  3.9.0;                                  !- Version Identifier

OS:SimulationControl,
  {36226b49-56fc-4844-8ec7-d2c66178cf0c}, !- Handle
  ,                                       !- Do Zone Sizing Calculation
  ,                                       !- Do System Sizing Calculation
  ,                                       !- Do Plant Sizing Calculation
  No;                                     !- Run Simulation for Sizing Periods

OS:Timestep,
  {6fc6d2a5-857b-43c6-8937-73bca091970f}, !- Handle
  1;                                      !- Number of Timesteps per Hour

OS:ShadowCalculation,
  {a9687cbe-d18f-4a20-a398-39de9dd3867e}, !- Handle
  PolygonClipping,                        !- Shading Calculation Method
  ,                                       !- Shading Calculation Update Frequency Method
  20,                                     !- Shading Calculation Update Frequency
  200,                                    !- Maximum Figures in Shadow Overlap Calculations
  ,                                       !- Polygon Clipping Algorithm
  512,                                    !- Pixel Counting Resolution
  ,                                       !- Sky Diffuse Modeling Algorithm
  No,                                     !- Output External Shading Calculation Results
  No,                                     !- Disable Self-Shading Within Shading Zone Groups
  No;                                     !- Disable Self-Shading From Shading Zone Groups to Other Zones

OS:SurfaceConvectionAlgorithm:Outside,
  {03bb5ae2-6c81-4be5-b3c5-5a922eb21710}, !- Handle
  DOE-2;                                  !- Algorithm

OS:SurfaceConvectionAlgorithm:Inside,
  {350fd1d2-bf9d-4027-b539-a8e4a398531f}, !- Handle
  TARP;                                   !- Algorithm

OS:ZoneCapacitanceMultiplier:ResearchSpecial,
  {59597f72-6f1d-4541-94d4-9f1fe008cfee}, !- Handle
  7,                                      !- Temperature Capacity Multiplier
  15,                                     !- Humidity Capacity Multiplier
  ;                                       !- Carbon Dioxide Capacity Multiplier

OS:ConvergenceLimits,
  {b7e1444e-bf78-4e38-8ea8-67b102463441}, !- Handle
  0;                                      !- Minimum System Timestep {minutes}

OS:RunPeriod,
  {41615123-03fb-494e-ada9-901f05593203}, !- Handle
  Run Period 1,                           !- Name
  1,                                      !- Begin Month
  1,                                      !- Begin Day of Month
  12,                                     !- End Month
  31,                                     !- End Day of Month
  ,                                       !- Use Weather File Holidays and Special Days
  ,                                       !- Use Weather File Daylight Saving Period
  ,                                       !- Apply Weekend Holiday Rule
  ,                                       !- Use Weather File Rain Indicators
  ,                                       !- Use Weather File Snow Indicators
  ;                                       !- Number of Times Runperiod to be Repeated

OS:PerformancePrecisionTradeoffs,
  {4b3f3d7c-dfa2-4447-b87c-f0d1a258370a}, !- Handle
  ,                                       !- Use Coil Direct Solutions
  CarrollMRT;                             !- Zone Radiant Exchange Algorithm

OS:WeatherFile,
  {06b2df3d-60e7-47cc-9c43-d45a832fc9a9}, !- Handle
  Buffalo Niagara Intl Ap,                !- City
  NY,                                     !- State Province Region
  USA,                                    !- Country
  TMY3,                                   !- Data Source
  725280,                                 !- WMO Number
  42.93,                                  !- Latitude {deg}
  -78.73,                                 !- Longitude {deg}
  -5,                                     !- Time Zone {hr}
  215,                                    !- Elevation {m}
  /Users/nmoore/github/urbanopt-example-geojson-project/example_project/weather/USA_NY_Buffalo-Greater.Buffalo.Intl.AP.725280_TMY3.epw, !- Url
  6B50E0FF,                               !- Checksum
  ,                                       !- Start Date Actual Year
  Sunday;                                 !- Start Day of Week

OS:YearDescription,
  {1524c7c5-784e-4576-a601-93986ed1df2c}, !- Handle
  2007,                                   !- Calendar Year
  ,                                       !- Day of Week for Start Day
  ;                                       !- Is Leap Year

OS:Site,
  {46650a14-d882-4860-96c6-cbb50ef8c1cf}, !- Handle
  Buffalo Niagara Intl Ap_NY,             !- Name
  42.93,                                  !- Latitude {deg}
  -78.73,                                 !- Longitude {deg}
  -5,                                     !- Time Zone {hr}
  215,                                    !- Elevation {m}
  Suburbs,                                !- Terrain
  Yes;                                    !- Keep Site Location Information

OS:RunPeriodControl:DaylightSavingTime,
  {72d865d7-873d-40d1-b5ed-5feeac68b99b}, !- Handle
  Mar 12,                                 !- Start Date
  Nov 5;                                  !- End Date

OS:Site:GroundTemperature:Shallow,
  {c9a60778-49ca-4fd2-897f-d04abc051dad}, !- Handle
  4.30207395723828,                       !- January Surface Ground Temperature {C}
  2.29327249652502,                       !- February Surface Ground Temperature {C}
  2.13240047156047,                       !- March Surface Ground Temperature {C}
  3.08567940719286,                       !- April Surface Ground Temperature {C}
  6.91256312497526,                       !- May Surface Ground Temperature {C}
  10.7216195949507,                       !- June Surface Ground Temperature {C}
  14.0238679822574,                       !- July Surface Ground Temperature {C}
  16.1157611184724,                       !- August Surface Ground Temperature {C}
  16.2934789303462,                       !- September Surface Ground Temperature {C}
  14.5920754632847,                       !- October Surface Ground Temperature {C}
  11.374036348653,                        !- November Surface Ground Temperature {C}
  7.68182621661674;                       !- December Surface Ground Temperature {C}

OS:ThermalZone,
  {70a5cc91-6b3f-49d3-84cc-86af690e303c}, !- Handle
  conditioned space,                      !- Name
  1,                                      !- Multiplier
  ,                                       !- Ceiling Height {m}
  475.79381486208,                        !- Volume {m3}
  ,                                       !- Floor Area {m2}
  ,                                       !- Zone Inside Convection Algorithm
  ,                                       !- Zone Outside Convection Algorithm
  ,                                       !- Zone Conditioning Equipment List Name
  {6f46bf56-6044-44fd-8667-4b109f895e84}, !- Zone Air Inlet Port List
  {ecd3fab8-84a6-48bc-b7e7-60c6b072f069}, !- Zone Air Exhaust Port List
  {559be34f-772e-40cd-a8ef-086ae7f253ed}, !- Zone Air Node Name
  {2663b386-67f7-47c8-a8d9-edd370883f07}, !- Zone Return Air Port List
  ,                                       !- Primary Daylighting Control Name
  ,                                       !- Fraction of Zone Controlled by Primary Daylighting Control
  ,                                       !- Secondary Daylighting Control Name
  ,                                       !- Fraction of Zone Controlled by Secondary Daylighting Control
  ,                                       !- Illuminance Map Name
  ,                                       !- Group Rendering Name
  {6b455166-eb53-4073-9282-2f4ebbce032e}, !- Thermostat Name
  No;                                     !- Use Ideal Air Loads

OS:Node,
  {26dda7db-e180-45f0-9500-30d287a142b7}, !- Handle
  Node 1,                                 !- Name
  {559be34f-772e-40cd-a8ef-086ae7f253ed}, !- Inlet Port
  ;                                       !- Outlet Port

OS:Connection,
  {559be34f-772e-40cd-a8ef-086ae7f253ed}, !- Handle
  {70a5cc91-6b3f-49d3-84cc-86af690e303c}, !- Source Object
  11,                                     !- Outlet Port
  {26dda7db-e180-45f0-9500-30d287a142b7}, !- Target Object
  2;                                      !- Inlet Port

OS:PortList,
  {6f46bf56-6044-44fd-8667-4b109f895e84}, !- Handle
  {70a5cc91-6b3f-49d3-84cc-86af690e303c}, !- HVAC Component
  {6181dcb1-b527-41fa-aed6-cb81e0402fbf}; !- Port 1

OS:PortList,
  {ecd3fab8-84a6-48bc-b7e7-60c6b072f069}, !- Handle
  {70a5cc91-6b3f-49d3-84cc-86af690e303c}; !- HVAC Component

OS:PortList,
  {2663b386-67f7-47c8-a8d9-edd370883f07}, !- Handle
  {70a5cc91-6b3f-49d3-84cc-86af690e303c}, !- HVAC Component
  {b09130d3-b8d2-439a-aaf4-5434a6aa7e11}; !- Port 1

OS:Sizing:Zone,
  {43ec27ea-604b-480a-b356-e150e65fef03}, !- Handle
  {70a5cc91-6b3f-49d3-84cc-86af690e303c}, !- Zone or ZoneList Name
  SupplyAirTemperature,                   !- Zone Cooling Design Supply Air Temperature Input Method
  14,                                     !- Zone Cooling Design Supply Air Temperature {C}
  11.11,                                  !- Zone Cooling Design Supply Air Temperature Difference {deltaC}
  SupplyAirTemperature,                   !- Zone Heating Design Supply Air Temperature Input Method
  40,                                     !- Zone Heating Design Supply Air Temperature {C}
  11.11,                                  !- Zone Heating Design Supply Air Temperature Difference {deltaC}
  0.0085,                                 !- Zone Cooling Design Supply Air Humidity Ratio {kg-H2O/kg-air}
  0.008,                                  !- Zone Heating Design Supply Air Humidity Ratio {kg-H2O/kg-air}
  ,                                       !- Zone Heating Sizing Factor
  ,                                       !- Zone Cooling Sizing Factor
  DesignDay,                              !- Cooling Design Air Flow Method
  ,                                       !- Cooling Design Air Flow Rate {m3/s}
  ,                                       !- Cooling Minimum Air Flow per Zone Floor Area {m3/s-m2}
  ,                                       !- Cooling Minimum Air Flow {m3/s}
  ,                                       !- Cooling Minimum Air Flow Fraction
  DesignDay,                              !- Heating Design Air Flow Method
  ,                                       !- Heating Design Air Flow Rate {m3/s}
  ,                                       !- Heating Maximum Air Flow per Zone Floor Area {m3/s-m2}
  ,                                       !- Heating Maximum Air Flow {m3/s}
  ,                                       !- Heating Maximum Air Flow Fraction
  No,                                     !- Account for Dedicated Outdoor Air System
  NeutralSupplyAir,                       !- Dedicated Outdoor Air System Control Strategy
  autosize,                               !- Dedicated Outdoor Air Low Setpoint Temperature for Design {C}
  autosize,                               !- Dedicated Outdoor Air High Setpoint Temperature for Design {C}
  Sensible Load Only No Latent Load,      !- Zone Load Sizing Method
  HumidityRatioDifference,                !- Zone Latent Cooling Design Supply Air Humidity Ratio Input Method
  ,                                       !- Zone Dehumidification Design Supply Air Humidity Ratio {kgWater/kgDryAir}
  0.005,                                  !- Zone Cooling Design Supply Air Humidity Ratio Difference {kgWater/kgDryAir}
  HumidityRatioDifference,                !- Zone Latent Heating Design Supply Air Humidity Ratio Input Method
  ,                                       !- Zone Humidification Design Supply Air Humidity Ratio {kgWater/kgDryAir}
  0.005,                                  !- Zone Humidification Design Supply Air Humidity Ratio Difference {kgWater/kgDryAir}
  ,                                       !- Zone Humidistat Dehumidification Set Point Schedule Name
  ,                                       !- Zone Humidistat Humidification Set Point Schedule Name
  ,                                       !- Design Zone Air Distribution Effectiveness in Cooling Mode
  ,                                       !- Design Zone Air Distribution Effectiveness in Heating Mode
  ,                                       !- Design Zone Secondary Recirculation Fraction {dimensionless}
  ,                                       !- Design Minimum Zone Ventilation Efficiency {dimensionless}
  Coincident;                             !- Sizing Option

OS:ZoneHVAC:EquipmentList,
  {fe4f86d7-73de-4d10-93c2-fb48332085bd}, !- Handle
  Zone HVAC Equipment List 1,             !- Name
  {70a5cc91-6b3f-49d3-84cc-86af690e303c}, !- Thermal Zone
  ,                                       !- Load Distribution Scheme
  {238dbe83-d971-43b1-a8be-090dde900367}, !- Zone Equipment 1
  1,                                      !- Zone Equipment Cooling Sequence 1
  1,                                      !- Zone Equipment Heating or No-Load Sequence 1
  {e4c24fa7-95c6-48ac-a3c4-0357c77352a0}, !- Zone Equipment Sequential Cooling Fraction Schedule Name 1
  {269a1903-7328-42db-880d-49b20ea4842c}; !- Zone Equipment Sequential Heating Fraction Schedule Name 1

OS:AdditionalProperties,
  {b9a5ee7d-5488-4501-bf6a-0154940d0c06}, !- Handle
  {70a5cc91-6b3f-49d3-84cc-86af690e303c}, !- Object Name
  ObjectType,                             !- Feature Name 1
  String,                                 !- Feature Data Type 1
  conditioned space;                      !- Feature Value 1

OS:Space,
  {c3e7a481-d50a-4b1f-891f-90fe3efa9175}, !- Handle
  conditioned space 1,                    !- Name
  ,                                       !- Space Type Name
  ,                                       !- Default Construction Set Name
  ,                                       !- Default Schedule Set Name
  ,                                       !- Direction of Relative North {deg}
  ,                                       !- X Origin {m}
  ,                                       !- Y Origin {m}
  ,                                       !- Z Origin {m}
  ,                                       !- Building Story Name
  {70a5cc91-6b3f-49d3-84cc-86af690e303c}, !- Thermal Zone Name
  ,                                       !- Part of Total Floor Area
  ,                                       !- Design Specification Outdoor Air Object Name
  ,                                       !- Building Unit Name
  475.79381486208;                        !- Volume {m3}

OS:Schedule:Ruleset,
  {8089ce5f-15ae-454b-b1a7-d434c1c2b005}, !- Handle
  heating setpoint,                       !- Name
  {a2bfea4a-3576-45e9-a59e-25191153e8aa}, !- Schedule Type Limits Name
  {7286e160-91ff-486b-b8ad-bc5384c22c8d}; !- Default Day Schedule Name

OS:Schedule:Day,
  {7286e160-91ff-486b-b8ad-bc5384c22c8d}, !- Handle
  heating setpoint default day,           !- Name
  {a2bfea4a-3576-45e9-a59e-25191153e8aa}, !- Schedule Type Limits Name
  ,                                       !- Interpolate to Timestep
  24,                                     !- Hour 1
  0,                                      !- Minute 1
  0;                                      !- Value Until Time 1

OS:Schedule:Rule,
  {dafe1992-a78e-4679-8cc2-484961b30a4b}, !- Handle
  heating setpoint allday rule,           !- Name
  {8089ce5f-15ae-454b-b1a7-d434c1c2b005}, !- Schedule Ruleset Name
  0,                                      !- Rule Order
  {d08f1be0-c5f3-4d5f-8ae6-9f4e4a9babfb}, !- Day Schedule Name
  Yes,                                    !- Apply Sunday
  Yes,                                    !- Apply Monday
  Yes,                                    !- Apply Tuesday
  Yes,                                    !- Apply Wednesday
  Yes,                                    !- Apply Thursday
  Yes,                                    !- Apply Friday
  Yes,                                    !- Apply Saturday
  DateRange,                              !- Date Specification Type
  1,                                      !- Start Month
  1,                                      !- Start Day
  12,                                     !- End Month
  31;                                     !- End Day

OS:Schedule:Day,
  {d08f1be0-c5f3-4d5f-8ae6-9f4e4a9babfb}, !- Handle
  heating setpoint day,                   !- Name
  {a2bfea4a-3576-45e9-a59e-25191153e8aa}, !- Schedule Type Limits Name
  ,                                       !- Interpolate to Timestep
  24,                                     !- Hour 1
  0,                                      !- Minute 1
  20;                                     !- Value Until Time 1

OS:Schedule:Ruleset,
  {bc873626-22be-4708-9d7b-1086615b7eb1}, !- Handle
  cooling setpoint,                       !- Name
  {a2bfea4a-3576-45e9-a59e-25191153e8aa}, !- Schedule Type Limits Name
  {826f775d-83c1-4cea-a3a7-3d08ff00b8b8}; !- Default Day Schedule Name

OS:Schedule:Day,
  {826f775d-83c1-4cea-a3a7-3d08ff00b8b8}, !- Handle
  cooling setpoint default day,           !- Name
  {a2bfea4a-3576-45e9-a59e-25191153e8aa}, !- Schedule Type Limits Name
  ,                                       !- Interpolate to Timestep
  24,                                     !- Hour 1
  0,                                      !- Minute 1
  0;                                      !- Value Until Time 1

OS:Schedule:Rule,
  {f2eabf5b-d93f-4cb8-8bf0-54e1522ed0a4}, !- Handle
  cooling setpoint allday rule,           !- Name
  {bc873626-22be-4708-9d7b-1086615b7eb1}, !- Schedule Ruleset Name
  0,                                      !- Rule Order
  {71c19244-4a98-4500-b908-a0d3bb0790e7}, !- Day Schedule Name
  Yes,                                    !- Apply Sunday
  Yes,                                    !- Apply Monday
  Yes,                                    !- Apply Tuesday
  Yes,                                    !- Apply Wednesday
  Yes,                                    !- Apply Thursday
  Yes,                                    !- Apply Friday
  Yes,                                    !- Apply Saturday
  DateRange,                              !- Date Specification Type
  1,                                      !- Start Month
  1,                                      !- Start Day
  12,                                     !- End Month
  31;                                     !- End Day

OS:Schedule:Day,
  {71c19244-4a98-4500-b908-a0d3bb0790e7}, !- Handle
  cooling setpoint day,                   !- Name
  {a2bfea4a-3576-45e9-a59e-25191153e8aa}, !- Schedule Type Limits Name
  ,                                       !- Interpolate to Timestep
  24,                                     !- Hour 1
  0,                                      !- Minute 1
  25.5555555555556;                       !- Value Until Time 1

OS:ThermostatSetpoint:DualSetpoint,
  {6b455166-eb53-4073-9282-2f4ebbce032e}, !- Handle
  conditioned space temperature setpoint, !- Name
  {8089ce5f-15ae-454b-b1a7-d434c1c2b005}, !- Heating Setpoint Temperature Schedule Name
  {bc873626-22be-4708-9d7b-1086615b7eb1}, !- Cooling Setpoint Temperature Schedule Name
  0;                                      !- Temperature Difference Between Cutout And Setpoint {deltaC}

OS:ScheduleTypeLimits,
  {a2bfea4a-3576-45e9-a59e-25191153e8aa}, !- Handle
  Temperature,                            !- Name
  ,                                       !- Lower Limit Value
  ,                                       !- Upper Limit Value
  Continuous,                             !- Numeric Type
  Temperature;                            !- Unit Type

OS:Surface,
  {85824f66-ee19-486a-81fe-5473dd308c9a}, !- Handle
  Roof1,                                  !- Name
  RoofCeiling,                            !- Surface Type
  {33b89532-ec9b-46fb-a45c-7ccad92d2802}, !- Construction Name
  {c3e7a481-d50a-4b1f-891f-90fe3efa9175}, !- Space Name
  Outdoors,                               !- Outside Boundary Condition
  ,                                       !- Outside Boundary Condition Object
  SunExposed,                             !- Sun Exposure
  WindExposed,                            !- Wind Exposure
  ,                                       !- View Factor to Ground
  ,                                       !- Number of Vertices
  -27.1507941683368, 33.2208099683368, 2.4384, !- X,Y,Z Vertex 1 {m}
  -27.1507941683368, 25.2543851312596, 6.42161241853859, !- X,Y,Z Vertex 2 {m}
  -18.2440604316632, 25.2543851312596, 6.42161241853859, !- X,Y,Z Vertex 3 {m}
  -18.2440604316632, 33.2208099683368, 2.4384; !- X,Y,Z Vertex 4 {m}

OS:AdditionalProperties,
  {bc7b2d5f-ca0c-45b1-af02-2aff8de7f510}, !- Handle
  {85824f66-ee19-486a-81fe-5473dd308c9a}, !- Object Name
  Length,                                 !- Feature Name 1
  Double,                                 !- Feature Data Type 1
  29.221567377538118,                     !- Feature Value 1
  Width,                                  !- Feature Name 2
  Double,                                 !- Feature Data Type 2
  29.221567377538118,                     !- Feature Value 2
  Azimuth,                                !- Feature Name 3
  Integer,                                !- Feature Data Type 3
  0,                                      !- Feature Value 3
  Tilt,                                   !- Feature Name 4
  Double,                                 !- Feature Data Type 4
  0.5,                                    !- Feature Value 4
  SurfaceType,                            !- Feature Name 5
  String,                                 !- Feature Data Type 5
  Roof;                                   !- Feature Value 5

OS:Material,
  {0008efbf-cedc-48d3-90bf-5c602abcf09b}, !- Handle
  asphalt or fiberglass shingles,         !- Name
  Rough,                                  !- Roughness
  0.00635,                                !- Thickness {m}
  0.162714,                               !- Conductivity {W/m-K}
  1121.4,                                 !- Density {kg/m3}
  1465.45,                                !- Specific Heat {J/kg-K}
  0.9,                                    !- Thermal Absorptance
  0.85,                                   !- Solar Absorptance
  0.85;                                   !- Visible Absorptance

OS:Material,
  {65e372ff-9161-42a0-859a-3c92f8df7a92}, !- Handle
  roof stud and cavity,                   !- Name
  Rough,                                  !- Roughness
  0.0889,                                 !- Thickness {m}
  0.468249472857624,                      !- Conductivity {W/m-K}
  50.32683,                               !- Density {kg/m3}
  1063.80987585548,                       !- Specific Heat {J/kg-K}
  0.9,                                    !- Thermal Absorptance
  0.7,                                    !- Solar Absorptance
  0.7;                                    !- Visible Absorptance

OS:Material,
  {2424ae80-b420-4411-a7c0-cb4990b119b9}, !- Handle
  gypsum board,                           !- Name
  Rough,                                  !- Roughness
  0.00254,                                !- Thickness {m}
  0.1602906,                              !- Conductivity {W/m-K}
  801,                                    !- Density {kg/m3}
  837.4,                                  !- Specific Heat {J/kg-K}
  0.9,                                    !- Thermal Absorptance
  0.6,                                    !- Solar Absorptance
  0.6;                                    !- Visible Absorptance

OS:Construction,
  {33b89532-ec9b-46fb-a45c-7ccad92d2802}, !- Handle
  Roof1 construction,                     !- Name
  ,                                       !- Surface Rendering Name
  {0008efbf-cedc-48d3-90bf-5c602abcf09b}, !- Layer 1
  {65e372ff-9161-42a0-859a-3c92f8df7a92}, !- Layer 2
  {2424ae80-b420-4411-a7c0-cb4990b119b9}; !- Layer 3

OS:Surface,
  {addc45f7-85fd-4cd7-846f-76ebc6403ddb}, !- Handle
  Roof2,                                  !- Name
  RoofCeiling,                            !- Surface Type
  {4e99bb4d-8b38-46dc-892f-62248b21d2b5}, !- Construction Name
  {c3e7a481-d50a-4b1f-891f-90fe3efa9175}, !- Space Name
  Outdoors,                               !- Outside Boundary Condition
  ,                                       !- Outside Boundary Condition Object
  SunExposed,                             !- Sun Exposure
  WindExposed,                            !- Wind Exposure
  ,                                       !- View Factor to Ground
  ,                                       !- Number of Vertices
  -24.3140762316632, -33.2208099683368, 2.4384, !- X,Y,Z Vertex 1 {m}
  -24.3140762316632, -25.2543851312596, 6.42161241853859, !- X,Y,Z Vertex 2 {m}
  -33.2208099683368, -25.2543851312596, 6.42161241853859, !- X,Y,Z Vertex 3 {m}
  -33.2208099683368, -33.2208099683368, 2.4384; !- X,Y,Z Vertex 4 {m}

OS:AdditionalProperties,
  {7b5c9b32-d0a7-46ee-a33a-65052ff5fb36}, !- Handle
  {addc45f7-85fd-4cd7-846f-76ebc6403ddb}, !- Object Name
  Length,                                 !- Feature Name 1
  Double,                                 !- Feature Data Type 1
  29.221567377538118,                     !- Feature Value 1
  Width,                                  !- Feature Name 2
  Double,                                 !- Feature Data Type 2
  29.221567377538118,                     !- Feature Value 2
  Azimuth,                                !- Feature Name 3
  Integer,                                !- Feature Data Type 3
  180,                                    !- Feature Value 3
  Tilt,                                   !- Feature Name 4
  Double,                                 !- Feature Data Type 4
  0.5,                                    !- Feature Value 4
  SurfaceType,                            !- Feature Name 5
  String,                                 !- Feature Data Type 5
  Roof;                                   !- Feature Value 5

OS:Construction,
  {4e99bb4d-8b38-46dc-892f-62248b21d2b5}, !- Handle
  Roof2 construction,                     !- Name
  ,                                       !- Surface Rendering Name
  {0008efbf-cedc-48d3-90bf-5c602abcf09b}, !- Layer 1
  {65e372ff-9161-42a0-859a-3c92f8df7a92}, !- Layer 2
  {2424ae80-b420-4411-a7c0-cb4990b119b9}; !- Layer 3

OS:Surface,
  {db510f9e-3e51-44e2-b19c-8204bc27f367}, !- Handle
  Wall1,                                  !- Name
  Wall,                                   !- Surface Type
  {796a66ea-34fd-4ed1-a088-50058dd6b6e0}, !- Construction Name
  {c3e7a481-d50a-4b1f-891f-90fe3efa9175}, !- Space Name
  Outdoors,                               !- Outside Boundary Condition
  ,                                       !- Outside Boundary Condition Object
  SunExposed,                             !- Sun Exposure
  WindExposed,                            !- Wind Exposure
  ,                                       !- View Factor to Ground
  ,                                       !- Number of Vertices
  -32.2917795683368, 33.2208099683368, 0, !- X,Y,Z Vertex 1 {m}
  -32.2917795683368, 33.2208099683368, 4.8768, !- X,Y,Z Vertex 2 {m}
  -28.0798245683368, 33.2208099683368, 4.8768, !- X,Y,Z Vertex 3 {m}
  -28.0798245683368, 33.2208099683368, 0; !- X,Y,Z Vertex 4 {m}

OS:AdditionalProperties,
  {0ee40e92-4199-416c-903a-6ac760e8b374}, !- Handle
  {db510f9e-3e51-44e2-b19c-8204bc27f367}, !- Object Name
  Length,                                 !- Feature Name 1
  Double,                                 !- Feature Data Type 1
  13.81875,                               !- Feature Value 1
  Azimuth,                                !- Feature Name 2
  Integer,                                !- Feature Data Type 2
  0,                                      !- Feature Value 2
  Tilt,                                   !- Feature Name 3
  Double,                                 !- Feature Data Type 3
  90,                                     !- Feature Value 3
  SurfaceType,                            !- Feature Name 4
  String,                                 !- Feature Data Type 4
  Wall;                                   !- Feature Value 4

OS:Material,
  {d19e7f3a-2df8-4bf7-ada5-8bf3e0014651}, !- Handle
  wood siding,                            !- Name
  Rough,                                  !- Roughness
  0.0254,                                 !- Thickness {m}
  0.1024175,                              !- Conductivity {W/m-K}
  544.68,                                 !- Density {kg/m3}
  1172.36,                                !- Specific Heat {J/kg-K}
  0.9,                                    !- Thermal Absorptance
  0.7,                                    !- Solar Absorptance
  0.7;                                    !- Visible Absorptance

OS:Material,
  {2e340a7a-2f7b-48b3-9b60-3e5ec455008f}, !- Handle
  osb sheathing 0.5 in.,                  !- Name
  Rough,                                  !- Roughness
  0.0127,                                 !- Thickness {m}
  0.1154577,                              !- Conductivity {W/m-K}
  512.64,                                 !- Density {kg/m3}
  1214.23,                                !- Specific Heat {J/kg-K}
  0.9,                                    !- Thermal Absorptance
  0.7,                                    !- Solar Absorptance
  0.7;                                    !- Visible Absorptance

OS:Material,
  {ded1095f-ab43-4e55-abd9-06b50f9303e3}, !- Handle
  wall stud and cavity,                   !- Name
  Rough,                                  !- Roughness
  0.1397,                                 !- Thickness {m}
  0.0929021674204099,                     !- Conductivity {W/m-K}
  139.0536,                               !- Density {kg/m3}
  1170.23755760369,                       !- Specific Heat {J/kg-K}
  0.9,                                    !- Thermal Absorptance
  0.7,                                    !- Solar Absorptance