
OS:Version,
  {fea63390-b488-45f4-b92b-ad7d3d05a91e}, !- Handle
  3.10.0;                                 !- Version Identifier

OS:SimulationControl,
  {c68ea475-eb30-4d10-b539-ce2af46e58b7}, !- Handle
  ,                                       !- Do Zone Sizing Calculation
  ,                                       !- Do System Sizing Calculation
  ,                                       !- Do Plant Sizing Calculation
  No;                                     !- Run Simulation for Sizing Periods

OS:Timestep,
  {b502f416-2a96-4c62-8f2b-f2a4981a6957}, !- Handle
  1;                                      !- Number of Timesteps per Hour

OS:ShadowCalculation,
  {b5a160fd-f117-46c7-a4fe-29a6fe2313a9}, !- Handle
  PolygonClipping,                        !- Shading Calculation Method
  ,                                       !- Shading Calculation Update Frequency Method
  20,                                     !- Shading Calculation Update Frequency
  200,                                    !- Maximum Figures in Shadow Overlap Calculations
  ,                                       !- Polygon Clipping Algorithm
  512,                                    !- Pixel Counting Resolution
  ,                                       !- Sky Diffuse Modeling Algorithm
  No,                                     !- Output External Shading Calculation Results
  No,                                     !- Disable Self-Shading Within Shading Zone Groups
  No;                                     !- Disable Self-Shading From Shading Zone Groups to Other Zones

OS:SurfaceConvectionAlgorithm:Outside,
  {761b29f9-a5c5-4c5d-ba49-b03345b2d734}, !- Handle
  DOE-2;                                  !- Algorithm

OS:SurfaceConvectionAlgorithm:Inside,
  {8438a16a-be1b-4f4f-9424-c4f5d5b0d062}, !- Handle
  TARP;                                   !- Algorithm

OS:ZoneCapacitanceMultiplier:ResearchSpecial,
  {ec8ca86b-ad1b-4066-b0de-9953dfd34a31}, !- Handle
  7,                                      !- Temperature Capacity Multiplier
  15,                                     !- Humidity Capacity Multiplier
  ;                                       !- Carbon Dioxide Capacity Multiplier

OS:ConvergenceLimits,
  {9fe47497-fbdf-4ef2-8040-d926881f2039}, !- Handle
  0;                                      !- Minimum System Timestep {minutes}

OS:RunPeriod,
  {86508d2a-db89-4ff7-8b1c-1566090dc2d7}, !- Handle
  Run Period 1,                           !- Name
  1,                                      !- Begin Month
  1,                                      !- Begin Day of Month
  12,                                     !- End Month
  31,                                     !- End Day of Month
  ,                                       !- Use Weather File Holidays and Special Days
  ,                                       !- Use Weather File Daylight Saving Period
  ,                                       !- Apply Weekend Holiday Rule
  ,                                       !- Use Weather File Rain Indicators
  ,                                       !- Use Weather File Snow Indicators
  ;                                       !- Number of Times Runperiod to be Repeated

OS:PerformancePrecisionTradeoffs,
  {668c9e8f-c8aa-495b-a351-d079e24f35a7}, !- Handle
  ,                                       !- Use Coil Direct Solutions
  CarrollMRT;                             !- Zone Radiant Exchange Algorithm

OS:WeatherFile,
  {f435ecda-9e48-4a8f-bfda-3f13b47ec494}, !- Handle
  Buffalo Niagara Intl Ap,                !- City
  NY,                                     !- State Province Region
  USA,                                    !- Country
  TMY3,                                   !- Data Source
  725280,                                 !- WMO Number
  42.93,                                  !- Latitude {deg}
  -78.73,                                 !- Longitude {deg}
  -5,                                     !- Time Zone {hr}
  215,                                    !- Elevation {m}
  /Users/nmoore/github/urbanopt-example-geojson-project/example_project/weather/USA_NY_Buffalo-Greater.Buffalo.Intl.AP.725280_TMY3.epw, !- Url
  6B50E0FF,                               !- Checksum
  ,                                       !- Start Date Actual Year
  Sunday;                                 !- Start Day of Week

OS:YearDescription,
  {dc50dffa-888b-4f08-ad74-b025fb6df343}, !- Handle
  2007,                                   !- Calendar Year
  ,                                       !- Day of Week for Start Day
  ;                                       !- Is Leap Year

OS:Site,
  {09acb542-7152-40c3-b6e0-efbc7283f799}, !- Handle
  Buffalo Niagara Intl Ap_NY,             !- Name
  42.93,                                  !- Latitude {deg}
  -78.73,                                 !- Longitude {deg}
  -5,                                     !- Time Zone {hr}
  215,                                    !- Elevation {m}
  Suburbs,                                !- Terrain
  Yes;                                    !- Keep Site Location Information

OS:RunPeriodControl:DaylightSavingTime,
  {46961821-1760-4532-9ede-b9099be01ab2}, !- Handle
  Mar 12,                                 !- Start Date
  Nov 5;                                  !- End Date

OS:Site:GroundTemperature:Shallow,
  {f196b801-b14b-4628-a16b-96c4b15186db}, !- Handle
  4.30207395723828,                       !- January Surface Ground Temperature {C}
  2.29327249652502,                       !- February Surface Ground Temperature {C}
  2.13240047156047,                       !- March Surface Ground Temperature {C}
  3.08567940719286,                       !- April Surface Ground Temperature {C}
  6.91256312497526,                       !- May Surface Ground Temperature {C}
  10.7216195949507,                       !- June Surface Ground Temperature {C}
  14.0238679822574,                       !- July Surface Ground Temperature {C}
  16.1157611184724,                       !- August Surface Ground Temperature {C}
  16.2934789303462,                       !- September Surface Ground Temperature {C}
  14.5920754632847,                       !- October Surface Ground Temperature {C}
  11.374036348653,                        !- November Surface Ground Temperature {C}
  7.68182621661674;                       !- December Surface Ground Temperature {C}

OS:ThermalZone,
  {539dc846-cc9e-4dfb-b755-a0031d2b2803}, !- Handle
  conditioned space,                      !- Name
  1,                                      !- Multiplier
  ,                                       !- Ceiling Height {m}
  475.79381486208,                        !- Volume {m3}
  ,                                       !- Floor Area {m2}
  ,                                       !- Zone Inside Convection Algorithm
  ,                                       !- Zone Outside Convection Algorithm
  ,                                       !- Zone Conditioning Equipment List Name
  {bf88d470-ae6a-417f-84bf-6de2c46bf275}, !- Zone Air Inlet Port List
  {a16a41a0-8aa8-4f34-9145-c89284a34e37}, !- Zone Air Exhaust Port List
  {8a8478b7-1104-418c-9ad6-5afbdf0c2a4c}, !- Zone Air Node Name
  {594bfd87-9c6a-4b47-8d7b-1cbf0bc165c0}, !- Zone Return Air Port List
  ,                                       !- Primary Daylighting Control Name
  ,                                       !- Fraction of Zone Controlled by Primary Daylighting Control
  ,                                       !- Secondary Daylighting Control Name
  ,                                       !- Fraction of Zone Controlled by Secondary Daylighting Control
  ,                                       !- Illuminance Map Name
  ,                                       !- Group Rendering Name
  {ab2137a0-6e8a-4b0d-899c-6258b14cf894}, !- Thermostat Name
  No;                                     !- Use Ideal Air Loads

OS:Node,
  {efb11005-5acc-4b82-89b1-b7275d4ef057}, !- Handle
  Node 1,                                 !- Name
  {8a8478b7-1104-418c-9ad6-5afbdf0c2a4c}, !- Inlet Port
  ;                                       !- Outlet Port

OS:Connection,
  {8a8478b7-1104-418c-9ad6-5afbdf0c2a4c}, !- Handle
  {539dc846-cc9e-4dfb-b755-a0031d2b2803}, !- Source Object
  11,                                     !- Outlet Port
  {efb11005-5acc-4b82-89b1-b7275d4ef057}, !- Target Object
  2;                                      !- Inlet Port

OS:PortList,
  {bf88d470-ae6a-417f-84bf-6de2c46bf275}, !- Handle
  {539dc846-cc9e-4dfb-b755-a0031d2b2803}, !- HVAC Component
  {4960fbc6-3b07-48ae-b02a-c832b77d1a54}; !- Port 1

OS:PortList,
  {a16a41a0-8aa8-4f34-9145-c89284a34e37}, !- Handle
  {539dc846-cc9e-4dfb-b755-a0031d2b2803}; !- HVAC Component

OS:PortList,
  {594bfd87-9c6a-4b47-8d7b-1cbf0bc165c0}, !- Handle
  {539dc846-cc9e-4dfb-b755-a0031d2b2803}, !- HVAC Component
  {b9375cec-cd0e-4965-b20e-2439bc2c361c}; !- Port 1

OS:Sizing:Zone,
  {7137661b-f118-4fbc-a9ad-2e30dd1673d3}, !- Handle
  {539dc846-cc9e-4dfb-b755-a0031d2b2803}, !- Zone or ZoneList Name
  SupplyAirTemperature,                   !- Zone Cooling Design Supply Air Temperature Input Method
  14,                                     !- Zone Cooling Design Supply Air Temperature {C}
  11.11,                                  !- Zone Cooling Design Supply Air Temperature Difference {deltaC}
  SupplyAirTemperature,                   !- Zone Heating Design Supply Air Temperature Input Method
  40,                                     !- Zone Heating Design Supply Air Temperature {C}
  11.11,                                  !- Zone Heating Design Supply Air Temperature Difference {deltaC}
  0.0085,                                 !- Zone Cooling Design Supply Air Humidity Ratio {kg-H2O/kg-air}
  0.008,                                  !- Zone Heating Design Supply Air Humidity Ratio {kg-H2O/kg-air}
  ,                                       !- Zone Heating Sizing Factor
  ,                                       !- Zone Cooling Sizing Factor
  DesignDay,                              !- Cooling Design Air Flow Method
  ,                                       !- Cooling Design Air Flow Rate {m3/s}
  ,                                       !- Cooling Minimum Air Flow per Zone Floor Area {m3/s-m2}
  ,                                       !- Cooling Minimum Air Flow {m3/s}
  ,                                       !- Cooling Minimum Air Flow Fraction
  DesignDay,                              !- Heating Design Air Flow Method
  ,                                       !- Heating Design Air Flow Rate {m3/s}
  ,                                       !- Heating Maximum Air Flow per Zone Floor Area {m3/s-m2}
  ,                                       !- Heating Maximum Air Flow {m3/s}
  ,                                       !- Heating Maximum Air Flow Fraction
  No,                                     !- Account for Dedicated Outdoor Air System
  NeutralSupplyAir,                       !- Dedicated Outdoor Air System Control Strategy
  autosize,                               !- Dedicated Outdoor Air Low Setpoint Temperature for Design {C}
  autosize,                               !- Dedicated Outdoor Air High Setpoint Temperature for Design {C}
  Sensible Load Only No Latent Load,      !- Zone Load Sizing Method
  HumidityRatioDifference,                !- Zone Latent Cooling Design Supply Air Humidity Ratio Input Method
  ,                                       !- Zone Dehumidification Design Supply Air Humidity Ratio {kgWater/kgDryAir}
  0.005,                                  !- Zone Cooling Design Supply Air Humidity Ratio Difference {kgWater/kgDryAir}
  HumidityRatioDifference,                !- Zone Latent Heating Design Supply Air Humidity Ratio Input Method
  ,                                       !- Zone Humidification Design Supply Air Humidity Ratio {kgWater/kgDryAir}
  0.005,                                  !- Zone Humidification Design Supply Air Humidity Ratio Difference {kgWater/kgDryAir}
  ,                                       !- Zone Humidistat Dehumidification Set Point Schedule Name
  ,                                       !- Zone Humidistat Humidification Set Point Schedule Name
  ,                                       !- Design Zone Air Distribution Effectiveness in Cooling Mode
  ,                                       !- Design Zone Air Distribution Effectiveness in Heating Mode
  ,                                       !- Design Zone Secondary Recirculation Fraction {dimensionless}
  ,                                       !- Design Minimum Zone Ventilation Efficiency {dimensionless}
  Coincident;                             !- Sizing Option

OS:ZoneHVAC:EquipmentList,
  {b7581af5-8b43-4b01-9ef3-4a28ee1ce259}, !- Handle
  Zone HVAC Equipment List 1,             !- Name
  {539dc846-cc9e-4dfb-b755-a0031d2b2803}, !- Thermal Zone
  ,                                       !- Load Distribution Scheme
  {b9066c94-cd6f-4adc-a8be-18641a095df9}, !- Zone Equipment 1
  1,                                      !- Zone Equipment Cooling Sequence 1
  1,                                      !- Zone Equipment Heating or No-Load Sequence 1
  {ead65a84-80da-4b6b-a686-6b85ce9a48be}, !- Zone Equipment Sequential Cooling Fraction Schedule Name 1
  {a48ee7f4-35e8-42e0-b4d2-c931cf215ea7}; !- Zone Equipment Sequential Heating Fraction Schedule Name 1

OS:AdditionalProperties,
  {57bd705c-f182-4e00-b8f2-f9a7248d8cc2}, !- Handle
  {539dc846-cc9e-4dfb-b755-a0031d2b2803}, !- Object Name
  ObjectType,                             !- Feature Name 1
  String,                                 !- Feature Data Type 1
  conditioned space;                      !- Feature Value 1

OS:Space,
  {c91e6719-7dd3-4bc0-966b-cbc265a8ca08}, !- Handle
  conditioned space 1,                    !- Name
  ,                                       !- Space Type Name
  ,                                       !- Default Construction Set Name
  ,                                       !- Default Schedule Set Name
  ,                                       !- Direction of Relative North {deg}
  ,                                       !- X Origin {m}
  ,                                       !- Y Origin {m}
  ,                                       !- Z Origin {m}
  ,                                       !- Building Story Name
  {539dc846-cc9e-4dfb-b755-a0031d2b2803}, !- Thermal Zone Name
  ,                                       !- Part of Total Floor Area
  ,                                       !- Design Specification Outdoor Air Object Name
  ,                                       !- Building Unit Name
  475.79381486208;                        !- Volume {m3}

OS:Schedule:Ruleset,
  {1b1a30fd-e89d-4e5f-9c03-f70f7e6aac8c}, !- Handle
  heating setpoint,                       !- Name
  {ffdfe569-1333-4741-996f-6624095f1369}, !- Schedule Type Limits Name
  {b9cf4ac3-0454-4861-acd1-825614e8fd39}; !- Default Day Schedule Name

OS:Schedule:Day,
  {b9cf4ac3-0454-4861-acd1-825614e8fd39}, !- Handle
  heating setpoint default day,           !- Name
  {ffdfe569-1333-4741-996f-6624095f1369}, !- Schedule Type Limits Name
  ,                                       !- Interpolate to Timestep
  24,                                     !- Hour 1
  0,                                      !- Minute 1
  0;                                      !- Value Until Time 1

OS:Schedule:Rule,
  {74ea7bf3-7484-43a2-8cad-ceb593bb7f66}, !- Handle
  heating setpoint allday rule,           !- Name
  {1b1a30fd-e89d-4e5f-9c03-f70f7e6aac8c}, !- Schedule Ruleset Name
  0,                                      !- Rule Order
  {40b63310-1afa-4522-b86f-23f7c18d5b65}, !- Day Schedule Name
  Yes,                                    !- Apply Sunday
  Yes,                                    !- Apply Monday
  Yes,                                    !- Apply Tuesday
  Yes,                                    !- Apply Wednesday
  Yes,                                    !- Apply Thursday
  Yes,                                    !- Apply Friday
  Yes,                                    !- Apply Saturday
  DateRange,                              !- Date Specification Type
  1,                                      !- Start Month
  1,                                      !- Start Day
  12,                                     !- End Month
  31;                                     !- End Day

OS:Schedule:Day,
  {40b63310-1afa-4522-b86f-23f7c18d5b65}, !- Handle
  heating setpoint day,                   !- Name
  {ffdfe569-1333-4741-996f-6624095f1369}, !- Schedule Type Limits Name
  ,                                       !- Interpolate to Timestep
  24,                                     !- Hour 1
  0,                                      !- Minute 1
  20;                                     !- Value Until Time 1

OS:Schedule:Ruleset,
  {06c1b64b-cee8-47ae-8b98-e1c30788a0f4}, !- Handle
  cooling setpoint,                       !- Name
  {ffdfe569-1333-4741-996f-6624095f1369}, !- Schedule Type Limits Name
  {90d3e6b0-43fe-45a7-8c89-0e1f5cd6f288}; !- Default Day Schedule Name

OS:Schedule:Day,
  {90d3e6b0-43fe-45a7-8c89-0e1f5cd6f288}, !- Handle
  cooling setpoint default day,           !- Name
  {ffdfe569-1333-4741-996f-6624095f1369}, !- Schedule Type Limits Name
  ,                                       !- Interpolate to Timestep
  24,                                     !- Hour 1
  0,                                      !- Minute 1
  0;                                      !- Value Until Time 1

OS:Schedule:Rule,
  {ffc7b696-5fe0-4bc0-b5e3-d2ef56e25f7e}, !- Handle
  cooling setpoint allday rule,           !- Name
  {06c1b64b-cee8-47ae-8b98-e1c30788a0f4}, !- Schedule Ruleset Name
  0,                                      !- Rule Order
  {6aa37fcf-a9c8-43b2-ae86-6812112d7077}, !- Day Schedule Name
  Yes,                                    !- Apply Sunday
  Yes,                                    !- Apply Monday
  Yes,                                    !- Apply Tuesday
  Yes,                                    !- Apply Wednesday
  Yes,                                    !- Apply Thursday
  Yes,                                    !- Apply Friday
  Yes,                                    !- Apply Saturday
  DateRange,                              !- Date Specification Type
  1,                                      !- Start Month
  1,                                      !- Start Day
  12,                                     !- End Month
  31;                                     !- End Day

OS:Schedule:Day,
  {6aa37fcf-a9c8-43b2-ae86-6812112d7077}, !- Handle
  cooling setpoint day,                   !- Name
  {ffdfe569-1333-4741-996f-6624095f1369}, !- Schedule Type Limits Name
  ,                                       !- Interpolate to Timestep
  24,                                     !- Hour 1
  0,                                      !- Minute 1
  25.5555555555556;                       !- Value Until Time 1

OS:ThermostatSetpoint:DualSetpoint,
  {ab2137a0-6e8a-4b0d-899c-6258b14cf894}, !- Handle
  conditioned space temperature setpoint, !- Name
  {1b1a30fd-e89d-4e5f-9c03-f70f7e6aac8c}, !- Heating Setpoint Temperature Schedule Name
  {06c1b64b-cee8-47ae-8b98-e1c30788a0f4}, !- Cooling Setpoint Temperature Schedule Name
  0;                                      !- Temperature Difference Between Cutout And Setpoint {deltaC}

OS:ScheduleTypeLimits,
  {ffdfe569-1333-4741-996f-6624095f1369}, !- Handle
  Temperature,                            !- Name
  ,                                       !- Lower Limit Value
  ,                                       !- Upper Limit Value
  Continuous,                             !- Numeric Type
  Temperature;                            !- Unit Type

OS:Surface,
  {5b6a68bb-fe12-4ab5-8835-9f8ad3681504}, !- Handle
  Roof1,                                  !- Name
  RoofCeiling,                            !- Surface Type
  {4a65a5b3-a9cc-496f-9f2e-4b36fe02f734}, !- Construction Name
  {c91e6719-7dd3-4bc0-966b-cbc265a8ca08}, !- Space Name
  Outdoors,                               !- Outside Boundary Condition
  ,                                       !- Outside Boundary Condition Object
  SunExposed,                             !- Sun Exposure
  WindExposed,                            !- Wind Exposure
  ,                                       !- View Factor to Ground
  ,                                       !- Number of Vertices
  -27.1507941683368, 33.2208099683368, 2.4384, !- X,Y,Z Vertex 1 {m}
  -27.1507941683368, 25.2543851312596, 6.42161241853859, !- X,Y,Z Vertex 2 {m}
  -18.2440604316632, 25.2543851312596, 6.42161241853859, !- X,Y,Z Vertex 3 {m}
  -18.2440604316632, 33.2208099683368, 2.4384; !- X,Y,Z Vertex 4 {m}

OS:AdditionalProperties,
  {9d65af5a-4f35-4f62-96db-e477a6d13626}, !- Handle
  {5b6a68bb-fe12-4ab5-8835-9f8ad3681504}, !- Object Name
  Length,                                 !- Feature Name 1
  Double,                                 !- Feature Data Type 1
  29.221567377538118,                     !- Feature Value 1
  Width,                                  !- Feature Name 2
  Double,                                 !- Feature Data Type 2
  29.221567377538118,                     !- Feature Value 2
  Azimuth,                                !- Feature Name 3
  Integer,                                !- Feature Data Type 3
  0,                                      !- Feature Value 3
  Tilt,                                   !- Feature Name 4
  Double,                                 !- Feature Data Type 4
  0.5,                                    !- Feature Value 4
  SurfaceType,                            !- Feature Name 5
  String,                                 !- Feature Data Type 5
  Roof;                                   !- Feature Value 5

OS:Material,
  {44e66f6e-9d39-482f-92f5-e66b8fda726b}, !- Handle
  asphalt or fiberglass shingles,         !- Name
  Rough,                                  !- Roughness
  0.00635,                                !- Thickness {m}
  0.162714,                               !- Conductivity {W/m-K}
  1121.4,                                 !- Density {kg/m3}
  1465.45,                                !- Specific Heat {J/kg-K}
  0.9,                                    !- Thermal Absorptance
  0.85,                                   !- Solar Absorptance
  0.85;                                   !- Visible Absorptance

OS:Material,
  {6ff0127b-8deb-465f-928e-23ba7aff1431}, !- Handle
  roof stud and cavity,                   !- Name
  Rough,                                  !- Roughness
  0.0889,                                 !- Thickness {m}
  0.468249472857624,                      !- Conductivity {W/m-K}
  50.32683,                               !- Density {kg/m3}
  1063.80987585548,                       !- Specific Heat {J/kg-K}
  0.9,                                    !- Thermal Absorptance
  0.7,                                    !- Solar Absorptance
  0.7;                                    !- Visible Absorptance

OS:Material,
  {7e9d435c-3406-478f-9d2c-627dd9ddbbe6}, !- Handle
  gypsum board,                           !- Name
  Rough,                                  !- Roughness
  0.00254,                                !- Thickness {m}
  0.1602906,                              !- Conductivity {W/m-K}
  801,                                    !- Density {kg/m3}
  837.4,                                  !- Specific Heat {J/kg-K}
  0.9,                                    !- Thermal Absorptance
  0.6,                                    !- Solar Absorptance
  0.6;                                    !- Visible Absorptance

OS:Construction,
  {4a65a5b3-a9cc-496f-9f2e-4b36fe02f734}, !- Handle
  Roof1 construction,                     !- Name
  ,                                       !- Surface Rendering Name
  {44e66f6e-9d39-482f-92f5-e66b8fda726b}, !- Layer 1
  {6ff0127b-8deb-465f-928e-23ba7aff1431}, !- Layer 2
  {7e9d435c-3406-478f-9d2c-627dd9ddbbe6}; !- Layer 3

OS:Surface,
  {35a4db42-5a9d-4152-8441-b011644c12d0}, !- Handle
  Roof2,                                  !- Name
  RoofCeiling,                            !- Surface Type
  {68130d61-ea7b-448c-bb60-923803df4c26}, !- Construction Name
  {c91e6719-7dd3-4bc0-966b-cbc265a8ca08}, !- Space Name
  Outdoors,                               !- Outside Boundary Condition
  ,                                       !- Outside Boundary Condition Object
  SunExposed,                             !- Sun Exposure
  WindExposed,                            !- Wind Exposure
  ,                                       !- View Factor to Ground
  ,                                       !- Number of Vertices
  -24.3140762316632, -33.2208099683368, 2.4384, !- X,Y,Z Vertex 1 {m}
  -24.3140762316632, -25.2543851312596, 6.42161241853859, !- X,Y,Z Vertex 2 {m}
  -33.2208099683368, -25.2543851312596, 6.42161241853859, !- X,Y,Z Vertex 3 {m}
  -33.2208099683368, -33.2208099683368, 2.4384; !- X,Y,Z Vertex 4 {m}

OS:AdditionalProperties,
  {95689c84-95a7-4228-980d-f6b364814c87}, !- Handle
  {35a4db42-5a9d-4152-8441-b011644c12d0}, !- Object Name
  Length,                                 !- Feature Name 1
  Double,                                 !- Feature Data Type 1
  29.221567377538118,                     !- Feature Value 1
  Width,                                  !- Feature Name 2
  Double,                                 !- Feature Data Type 2
  29.221567377538118,                     !- Feature Value 2
  Azimuth,                                !- Feature Name 3
  Integer,                                !- Feature Data Type 3
  180,                                    !- Feature Value 3
  Tilt,                                   !- Feature Name 4
  Double,                                 !- Feature Data Type 4
  0.5,                                    !- Feature Value 4
  SurfaceType,                            !- Feature Name 5
  String,                                 !- Feature Data Type 5
  Roof;                                   !- Feature Value 5

OS:Construction,
  {68130d61-ea7b-448c-bb60-923803df4c26}, !- Handle
  Roof2 construction,                     !- Name
  ,                                       !- Surface Rendering Name
  {44e66f6e-9d39-482f-92f5-e66b8fda726b}, !- Layer 1
  {6ff0127b-8deb-465f-928e-23ba7aff1431}, !- Layer 2
  {7e9d435c-3406-478f-9d2c-627dd9ddbbe6}; !- Layer 3

OS:Surface,
  {2ff8e9e3-22c6-4983-965a-52e4368f9337}, !- Handle
  Wall1,                                  !- Name
  Wall,                                   !- Surface Type
  {2f6ae66b-2ddc-42ab-878b-2229be293ee3}, !- Construction Name
  {c91e6719-7dd3-4bc0-966b-cbc265a8ca08}, !- Space Name
  Outdoors,                               !- Outside Boundary Condition
  ,                                       !- Outside Boundary Condition Object
  SunExposed,                             !- Sun Exposure
  WindExposed,                            !- Wind Exposure
  ,                                       !- View Factor to Ground
  ,                                       !- Number of Vertices
  -32.2917795683368, 33.2208099683368, 0, !- X,Y,Z Vertex 1 {m}
  -32.2917795683368, 33.2208099683368, 4.8768, !- X,Y,Z Vertex 2 {m}
  -28.0798245683368, 33.2208099683368, 4.8768, !- X,Y,Z Vertex 3 {m}
  -28.0798245683368, 33.2208099683368, 0; !- X,Y,Z Vertex 4 {m}

OS:AdditionalProperties,
  {dab6c558-3143-4afe-9fdc-f240c6c3b302}, !- Handle
  {2ff8e9e3-22c6-4983-965a-52e4368f9337}, !- Object Name
  Length,                                 !- Feature Name 1
  Double,                                 !- Feature Data Type 1
  13.81875,                               !- Feature Value 1
  Azimuth,                                !- Feature Name 2
  Integer,                                !- Feature Data Type 2
  0,                                      !- Feature Value 2
  Tilt,                                   !- Feature Name 3
  Double,                                 !- Feature Data Type 3
  90,                                     !- Feature Value 3
  SurfaceType,                            !- Feature Name 4
  String,                                 !- Feature Data Type 4
  Wall;                                   !- Feature Value 4

OS:Material,
  {faf8dfea-06c7-4a29-8c1b-c469db17ac37}, !- Handle
  wood siding,                            !- Name
  Rough,                                  !- Roughness
  0.0254,                                 !- Thickness {m}
  0.1024175,                              !- Conductivity {W/m-K}
  544.68,                                 !- Density {kg/m3}
  1172.36,                                !- Specific Heat {J/kg-K}
  0.9,                                    !- Thermal Absorptance
  0.7,                                    !- Solar Absorptance
  0.7;                                    !- Visible Absorptance

OS:Material,
  {0b3fdf44-f577-4ebb-a33e-ff8edc5e627b}, !- Handle
  osb sheathing 0.5 in.,                  !- Name
  Rough,                                  !- Roughness
  0.0127,                                 !- Thickness {m}
  0.1154577,                              !- Conductivity {W/m-K}
  512.64,                                 !- Density {kg/m3}
  1214.23,                                !- Specific Heat {J/kg-K}
  0.9,                                    !- Thermal Absorptance
  0.7,                                    !- Solar Absorptance
  0.7;                                    !- Visible Absorptance

OS:Material,
  {33fc197e-f091-498d-95c6-08c0d65081cc}, !- Handle
  wall stud and cavity,                   !- Name
  Rough,                                  !- Roughness
  0.1397,                                 !- Thickness {m}
  0.0929021674204099,                     !- Conductivity {W/m-K}
  139.0536,                               !- Density {kg/m3}
  1170.23755760369,                       !- Specific Heat {J/kg-K}
  0.9,                                    !- Thermal Absorptance
  0.7,                                    !- Solar Absorptance