
OS:Version,
  {1e310132-ad97-4f88-8e2d-27e41c2cadb3}, !- Handle
  3.9.0;                                  !- Version Identifier

OS:SimulationControl,
  {211e67d2-7b1c-4cd6-9f20-eb4bdd188704}, !- Handle
  ,                                       !- Do Zone Sizing Calculation
  ,                                       !- Do System Sizing Calculation
  ,                                       !- Do Plant Sizing Calculation
  No;                                     !- Run Simulation for Sizing Periods

OS:Timestep,
  {d9ae0c7c-0cee-4539-b9df-a1240530c865}, !- Handle
  1;                                      !- Number of Timesteps per Hour

OS:ShadowCalculation,
  {a5127070-961c-4e8d-b88d-1bce0c43378b}, !- Handle
  PolygonClipping,                        !- Shading Calculation Method
  ,                                       !- Shading Calculation Update Frequency Method
  20,                                     !- Shading Calculation Update Frequency
  200,                                    !- Maximum Figures in Shadow Overlap Calculations
  ,                                       !- Polygon Clipping Algorithm
  512,                                    !- Pixel Counting Resolution
  ,                                       !- Sky Diffuse Modeling Algorithm
  No,                                     !- Output External Shading Calculation Results
  No,                                     !- Disable Self-Shading Within Shading Zone Groups
  No;                                     !- Disable Self-Shading From Shading Zone Groups to Other Zones

OS:SurfaceConvectionAlgorithm:Outside,
  {cc54ad57-c8a6-46eb-801a-12dee5cc8eb5}, !- Handle
  DOE-2;                                  !- Algorithm

OS:SurfaceConvectionAlgorithm:Inside,
  {f976e039-d1e7-4636-8734-5d95739335f1}, !- Handle
  TARP;                                   !- Algorithm

OS:ZoneCapacitanceMultiplier:ResearchSpecial,
  {477cf927-27b0-4f9b-b059-50b1e4a04c94}, !- Handle
  7,                                      !- Temperature Capacity Multiplier
  15,                                     !- Humidity Capacity Multiplier
  ;                                       !- Carbon Dioxide Capacity Multiplier

OS:ConvergenceLimits,
  {e6efc345-80a2-48c8-9d37-19ffba65fb4e}, !- Handle
  0;                                      !- Minimum System Timestep {minutes}

OS:RunPeriod,
  {6bb1cc23-6261-46cf-ae6f-94d95f77c1dd}, !- Handle
  Run Period 1,                           !- Name
  1,                                      !- Begin Month
  1,                                      !- Begin Day of Month
  12,                                     !- End Month
  31,                                     !- End Day of Month
  ,                                       !- Use Weather File Holidays and Special Days
  ,                                       !- Use Weather File Daylight Saving Period
  ,                                       !- Apply Weekend Holiday Rule
  ,                                       !- Use Weather File Rain Indicators
  ,                                       !- Use Weather File Snow Indicators
  ;                                       !- Number of Times Runperiod to be Repeated

OS:PerformancePrecisionTradeoffs,
  {506f2e72-6e99-4f06-adee-d7cb63de0745}, !- Handle
  ,                                       !- Use Coil Direct Solutions
  CarrollMRT;                             !- Zone Radiant Exchange Algorithm

OS:WeatherFile,
  {106bc162-b30b-44b8-b5b3-b2406a2ae255}, !- Handle
  Buffalo Niagara Intl Ap,                !- City
  NY,                                     !- State Province Region
  USA,                                    !- Country
  TMY3,                                   !- Data Source
  725280,                                 !- WMO Number
  42.93,                                  !- Latitude {deg}
  -78.73,                                 !- Longitude {deg}
  -5,                                     !- Time Zone {hr}
  215,                                    !- Elevation {m}
  /Users/nmoore/github/urbanopt-example-geojson-project/example_project/weather/USA_NY_Buffalo-Greater.Buffalo.Intl.AP.725280_TMY3.epw, !- Url
  6B50E0FF,                               !- Checksum
  ,                                       !- Start Date Actual Year
  Sunday;                                 !- Start Day of Week

OS:YearDescription,
  {fe3b3790-a0cc-4788-a0ad-01975509b418}, !- Handle
  2007,                                   !- Calendar Year
  ,                                       !- Day of Week for Start Day
  ;                                       !- Is Leap Year

OS:Site,
  {b0a1301d-0c8f-472d-9196-2051aa1b628e}, !- Handle
  Buffalo Niagara Intl Ap_NY,             !- Name
  42.93,                                  !- Latitude {deg}
  -78.73,                                 !- Longitude {deg}
  -5,                                     !- Time Zone {hr}
  215,                                    !- Elevation {m}
  Suburbs,                                !- Terrain
  Yes;                                    !- Keep Site Location Information

OS:RunPeriodControl:DaylightSavingTime,
  {44a47116-07ff-45b0-adcd-863b3bc01b92}, !- Handle
  Mar 12,                                 !- Start Date
  Nov 5;                                  !- End Date

OS:Site:GroundTemperature:Shallow,
  {73728336-e471-4c47-a62d-c41a010ecb67}, !- Handle
  4.30207395723828,                       !- January Surface Ground Temperature {C}
  2.29327249652502,                       !- February Surface Ground Temperature {C}
  2.13240047156047,                       !- March Surface Ground Temperature {C}
  3.08567940719286,                       !- April Surface Ground Temperature {C}
  6.91256312497526,                       !- May Surface Ground Temperature {C}
  10.7216195949507,                       !- June Surface Ground Temperature {C}
  14.0238679822574,                       !- July Surface Ground Temperature {C}
  16.1157611184724,                       !- August Surface Ground Temperature {C}
  16.2934789303462,                       !- September Surface Ground Temperature {C}
  14.5920754632847,                       !- October Surface Ground Temperature {C}
  11.374036348653,                        !- November Surface Ground Temperature {C}
  7.68182621661674;                       !- December Surface Ground Temperature {C}

OS:ThermalZone,
  {38726ead-4bab-4efc-aca1-2f749e4d4019}, !- Handle
  conditioned space,                      !- Name
  1,                                      !- Multiplier
  ,                                       !- Ceiling Height {m}
  692.06373070848,                        !- Volume {m3}
  ,                                       !- Floor Area {m2}
  ,                                       !- Zone Inside Convection Algorithm
  ,                                       !- Zone Outside Convection Algorithm
  ,                                       !- Zone Conditioning Equipment List Name
  {24caddf8-5247-47fd-846a-89bcb416a598}, !- Zone Air Inlet Port List
  {9627414b-2047-49ff-9f58-cc539a3bd552}, !- Zone Air Exhaust Port List
  {7ab9bdcd-232c-4bca-a61d-2adf830b092a}, !- Zone Air Node Name
  {e1b62a6d-117f-43f3-828f-e6fa30aac3f0}, !- Zone Return Air Port List
  ,                                       !- Primary Daylighting Control Name
  ,                                       !- Fraction of Zone Controlled by Primary Daylighting Control
  ,                                       !- Secondary Daylighting Control Name
  ,                                       !- Fraction of Zone Controlled by Secondary Daylighting Control
  ,                                       !- Illuminance Map Name
  ,                                       !- Group Rendering Name
  {c5b7c9b0-87fc-40e0-bc2c-028e89271aee}, !- Thermostat Name
  No;                                     !- Use Ideal Air Loads

OS:Node,
  {b90d3676-81eb-4204-bcab-35f32bb0a560}, !- Handle
  Node 1,                                 !- Name
  {7ab9bdcd-232c-4bca-a61d-2adf830b092a}, !- Inlet Port
  ;                                       !- Outlet Port

OS:Connection,
  {7ab9bdcd-232c-4bca-a61d-2adf830b092a}, !- Handle
  {38726ead-4bab-4efc-aca1-2f749e4d4019}, !- Source Object
  11,                                     !- Outlet Port
  {b90d3676-81eb-4204-bcab-35f32bb0a560}, !- Target Object
  2;                                      !- Inlet Port

OS:PortList,
  {24caddf8-5247-47fd-846a-89bcb416a598}, !- Handle
  {38726ead-4bab-4efc-aca1-2f749e4d4019}, !- HVAC Component
  {495bee2a-dd72-464f-86c1-c1f275429349}; !- Port 1

OS:PortList,
  {9627414b-2047-49ff-9f58-cc539a3bd552}, !- Handle
  {38726ead-4bab-4efc-aca1-2f749e4d4019}; !- HVAC Component

OS:PortList,
  {e1b62a6d-117f-43f3-828f-e6fa30aac3f0}, !- Handle
  {38726ead-4bab-4efc-aca1-2f749e4d4019}, !- HVAC Component
  {ffd24b14-3acb-4224-a442-d565aac43be8}; !- Port 1

OS:Sizing:Zone,
  {1910d5d1-8574-4aa8-b897-0280cac94961}, !- Handle
  {38726ead-4bab-4efc-aca1-2f749e4d4019}, !- Zone or ZoneList Name
  SupplyAirTemperature,                   !- Zone Cooling Design Supply Air Temperature Input Method
  14,                                     !- Zone Cooling Design Supply Air Temperature {C}
  11.11,                                  !- Zone Cooling Design Supply Air Temperature Difference {deltaC}
  SupplyAirTemperature,                   !- Zone Heating Design Supply Air Temperature Input Method
  40,                                     !- Zone Heating Design Supply Air Temperature {C}
  11.11,                                  !- Zone Heating Design Supply Air Temperature Difference {deltaC}
  0.0085,                                 !- Zone Cooling Design Supply Air Humidity Ratio {kg-H2O/kg-air}
  0.008,                                  !- Zone Heating Design Supply Air Humidity Ratio {kg-H2O/kg-air}
  ,                                       !- Zone Heating Sizing Factor
  ,                                       !- Zone Cooling Sizing Factor
  DesignDay,                              !- Cooling Design Air Flow Method
  ,                                       !- Cooling Design Air Flow Rate {m3/s}
  ,                                       !- Cooling Minimum Air Flow per Zone Floor Area {m3/s-m2}
  ,                                       !- Cooling Minimum Air Flow {m3/s}
  ,                                       !- Cooling Minimum Air Flow Fraction
  DesignDay,                              !- Heating Design Air Flow Method
  ,                                       !- Heating Design Air Flow Rate {m3/s}
  ,                                       !- Heating Maximum Air Flow per Zone Floor Area {m3/s-m2}
  ,                                       !- Heating Maximum Air Flow {m3/s}
  ,                                       !- Heating Maximum Air Flow Fraction
  No,                                     !- Account for Dedicated Outdoor Air System
  NeutralSupplyAir,                       !- Dedicated Outdoor Air System Control Strategy
  autosize,                               !- Dedicated Outdoor Air Low Setpoint Temperature for Design {C}
  autosize,                               !- Dedicated Outdoor Air High Setpoint Temperature for Design {C}
  Sensible Load Only No Latent Load,      !- Zone Load Sizing Method
  HumidityRatioDifference,                !- Zone Latent Cooling Design Supply Air Humidity Ratio Input Method
  ,                                       !- Zone Dehumidification Design Supply Air Humidity Ratio {kgWater/kgDryAir}
  0.005,                                  !- Zone Cooling Design Supply Air Humidity Ratio Difference {kgWater/kgDryAir}
  HumidityRatioDifference,                !- Zone Latent Heating Design Supply Air Humidity Ratio Input Method
  ,                                       !- Zone Humidification Design Supply Air Humidity Ratio {kgWater/kgDryAir}
  0.005,                                  !- Zone Humidification Design Supply Air Humidity Ratio Difference {kgWater/kgDryAir}
  ,                                       !- Zone Humidistat Dehumidification Set Point Schedule Name
  ,                                       !- Zone Humidistat Humidification Set Point Schedule Name
  ,                                       !- Design Zone Air Distribution Effectiveness in Cooling Mode
  ,                                       !- Design Zone Air Distribution Effectiveness in Heating Mode
  ,                                       !- Design Zone Secondary Recirculation Fraction {dimensionless}
  ,                                       !- Design Minimum Zone Ventilation Efficiency {dimensionless}
  Coincident;                             !- Sizing Option

OS:ZoneHVAC:EquipmentList,
  {7b5fb963-0228-4590-a5a6-f1ae2a0d5b18}, !- Handle
  Zone HVAC Equipment List 1,             !- Name
  {38726ead-4bab-4efc-aca1-2f749e4d4019}, !- Thermal Zone
  ,                                       !- Load Distribution Scheme
  {cdd2c690-1f86-4dd8-9506-a86d8c40bb41}, !- Zone Equipment 1
  1,                                      !- Zone Equipment Cooling Sequence 1
  1,                                      !- Zone Equipment Heating or No-Load Sequence 1
  {7d31b2d1-8ea6-4737-91d5-039b928ffef9}, !- Zone Equipment Sequential Cooling Fraction Schedule Name 1
  {8cdf9667-0b01-4b86-9833-f71eed75cd5b}; !- Zone Equipment Sequential Heating Fraction Schedule Name 1

OS:AdditionalProperties,
  {48cf5884-ee53-400f-a960-e6cb30ddfeae}, !- Handle
  {38726ead-4bab-4efc-aca1-2f749e4d4019}, !- Object Name
  ObjectType,                             !- Feature Name 1
  String,                                 !- Feature Data Type 1
  conditioned space;                      !- Feature Value 1

OS:Space,
  {aae8c550-da3a-4e52-a228-0dd5b212834f}, !- Handle
  conditioned space 1,                    !- Name
  ,                                       !- Space Type Name
  ,                                       !- Default Construction Set Name
  ,                                       !- Default Schedule Set Name
  ,                                       !- Direction of Relative North {deg}
  ,                                       !- X Origin {m}
  ,                                       !- Y Origin {m}
  ,                                       !- Z Origin {m}
  ,                                       !- Building Story Name
  {38726ead-4bab-4efc-aca1-2f749e4d4019}, !- Thermal Zone Name
  ,                                       !- Part of Total Floor Area
  ,                                       !- Design Specification Outdoor Air Object Name
  ,                                       !- Building Unit Name
  692.06373070848;                        !- Volume {m3}

OS:Schedule:Ruleset,
  {aa04949a-09c4-4393-aa56-5e4b2dd13aee}, !- Handle
  heating setpoint,                       !- Name
  {b4573524-3136-42ad-8297-e9158bc8b792}, !- Schedule Type Limits Name
  {64e86acd-ae25-4f7b-a74b-76ef035b20a2}; !- Default Day Schedule Name

OS:Schedule:Day,
  {64e86acd-ae25-4f7b-a74b-76ef035b20a2}, !- Handle
  heating setpoint default day,           !- Name
  {b4573524-3136-42ad-8297-e9158bc8b792}, !- Schedule Type Limits Name
  ,                                       !- Interpolate to Timestep
  24,                                     !- Hour 1
  0,                                      !- Minute 1
  0;                                      !- Value Until Time 1

OS:Schedule:Rule,
  {7b3788e0-fed0-42a2-bdef-bc3738a2defe}, !- Handle
  heating setpoint allday rule,           !- Name
  {aa04949a-09c4-4393-aa56-5e4b2dd13aee}, !- Schedule Ruleset Name
  0,                                      !- Rule Order
  {174073a6-6bbc-4389-a687-e64c17a395c5}, !- Day Schedule Name
  Yes,                                    !- Apply Sunday
  Yes,                                    !- Apply Monday
  Yes,                                    !- Apply Tuesday
  Yes,                                    !- Apply Wednesday
  Yes,                                    !- Apply Thursday
  Yes,                                    !- Apply Friday
  Yes,                                    !- Apply Saturday
  DateRange,                              !- Date Specification Type
  1,                                      !- Start Month
  1,                                      !- Start Day
  12,                                     !- End Month
  31;                                     !- End Day

OS:Schedule:Day,
  {174073a6-6bbc-4389-a687-e64c17a395c5}, !- Handle
  heating setpoint day,                   !- Name
  {b4573524-3136-42ad-8297-e9158bc8b792}, !- Schedule Type Limits Name
  ,                                       !- Interpolate to Timestep
  24,                                     !- Hour 1
  0,                                      !- Minute 1
  20;                                     !- Value Until Time 1

OS:Schedule:Ruleset,
  {ff4ecc1f-c516-4309-9e34-930c833c4d27}, !- Handle
  cooling setpoint,                       !- Name
  {b4573524-3136-42ad-8297-e9158bc8b792}, !- Schedule Type Limits Name
  {c7100e17-200b-49ba-a8d5-bdc7c6411abd}; !- Default Day Schedule Name

OS:Schedule:Day,
  {c7100e17-200b-49ba-a8d5-bdc7c6411abd}, !- Handle
  cooling setpoint default day,           !- Name
  {b4573524-3136-42ad-8297-e9158bc8b792}, !- Schedule Type Limits Name
  ,                                       !- Interpolate to Timestep
  24,                                     !- Hour 1
  0,                                      !- Minute 1
  0;                                      !- Value Until Time 1

OS:Schedule:Rule,
  {fed4dc4c-f54a-4ad1-a39c-805d96734926}, !- Handle
  cooling setpoint allday rule,           !- Name
  {ff4ecc1f-c516-4309-9e34-930c833c4d27}, !- Schedule Ruleset Name
  0,                                      !- Rule Order
  {cf15d783-afba-4c6b-a8f9-f0e7556d68c4}, !- Day Schedule Name
  Yes,                                    !- Apply Sunday
  Yes,                                    !- Apply Monday
  Yes,                                    !- Apply Tuesday
  Yes,                                    !- Apply Wednesday
  Yes,                                    !- Apply Thursday
  Yes,                                    !- Apply Friday
  Yes,                                    !- Apply Saturday
  DateRange,                              !- Date Specification Type
  1,                                      !- Start Month
  1,                                      !- Start Day
  12,                                     !- End Month
  31;                                     !- End Day

OS:Schedule:Day,
  {cf15d783-afba-4c6b-a8f9-f0e7556d68c4}, !- Handle
  cooling setpoint day,                   !- Name
  {b4573524-3136-42ad-8297-e9158bc8b792}, !- Schedule Type Limits Name
  ,                                       !- Interpolate to Timestep
  24,                                     !- Hour 1
  0,                                      !- Minute 1
  25.5555555555556;                       !- Value Until Time 1

OS:ThermostatSetpoint:DualSetpoint,
  {c5b7c9b0-87fc-40e0-bc2c-028e89271aee}, !- Handle
  conditioned space temperature setpoint, !- Name
  {aa04949a-09c4-4393-aa56-5e4b2dd13aee}, !- Heating Setpoint Temperature Schedule Name
  {ff4ecc1f-c516-4309-9e34-930c833c4d27}, !- Cooling Setpoint Temperature Schedule Name
  0;                                      !- Temperature Difference Between Cutout And Setpoint {deltaC}

OS:ScheduleTypeLimits,
  {b4573524-3136-42ad-8297-e9158bc8b792}, !- Handle
  Temperature,                            !- Name
  ,                                       !- Lower Limit Value
  ,                                       !- Upper Limit Value
  Continuous,                             !- Numeric Type
  Temperature;                            !- Unit Type

OS:Surface,
  {994a810a-3a39-4930-af80-72787bd55671}, !- Handle
  Roof1,                                  !- Name
  RoofCeiling,                            !- Surface Type
  {ba4356e2-95e3-4589-b4af-46f23dbd6f18}, !- Construction Name
  {b40b91a1-3353-456e-8682-f4da99219f6c}, !- Space Name
  Outdoors,                               !- Outside Boundary Condition
  ,                                       !- Outside Boundary Condition Object
  SunExposed,                             !- Sun Exposure
  WindExposed,                            !- Wind Exposure
  ,                                       !- View Factor to Ground
  ,                                       !- Number of Vertices
  -26.9347048849634, 58.0557891618865, 2.4384, !- X,Y,Z Vertex 1 {m}
  -26.9347048849634, 46.7895631136661, 8.0715130241102, !- X,Y,Z Vertex 2 {m}
  -14.3386812381136, 46.7895631136661, 8.0715130241102, !- X,Y,Z Vertex 3 {m}
  -14.3386812381136, 58.0557891618865, 2.4384; !- X,Y,Z Vertex 4 {m}

OS:AdditionalProperties,
  {2bbf4f2a-83e4-4073-80b1-805650f4bb9d}, !- Handle
  {994a810a-3a39-4930-af80-72787bd55671}, !- Object Name
  Length,                                 !- Feature Name 1
  Double,                                 !- Feature Data Type 1
  41.325536899113608,                     !- Feature Value 1
  Width,                                  !- Feature Name 2
  Double,                                 !- Feature Data Type 2
  41.325536899113601,                     !- Feature Value 2
  Azimuth,                                !- Feature Name 3
  Integer,                                !- Feature Data Type 3
  0,                                      !- Feature Value 3
  Tilt,                                   !- Feature Name 4
  Double,                                 !- Feature Data Type 4
  0.5,                                    !- Feature Value 4
  SurfaceType,                            !- Feature Name 5
  String,                                 !- Feature Data Type 5
  Roof;                                   !- Feature Value 5

OS:ThermalZone,
  {eb829473-1a8f-491f-916b-b110546230f5}, !- Handle
  attic - vented,                         !- Name
  1,                                      !- Multiplier
  ,                                       !- Ceiling Height {m}
  356.389957095237,                       !- Volume {m3}
  ,                                       !- Floor Area {m2}
  ,                                       !- Zone Inside Convection Algorithm
  ,                                       !- Zone Outside Convection Algorithm
  ,                                       !- Zone Conditioning Equipment List Name
  {82e89650-fa99-4e81-aa25-e36384006a7e}, !- Zone Air Inlet Port List
  {4db69563-f81f-4460-a286-ea68535bf249}, !- Zone Air Exhaust Port List
  {bd6ec60f-23e2-4e70-bfc3-b0a7162d8b58}, !- Zone Air Node Name
  {d35af233-16f4-4e51-af91-fda10f9d8fea}, !- Zone Return Air Port List
  ,                                       !- Primary Daylighting Control Name
  ,                                       !- Fraction of Zone Controlled by Primary Daylighting Control
  ,                                       !- Secondary Daylighting Control Name
  ,                                       !- Fraction of Zone Controlled by Secondary Daylighting Control
  ,                                       !- Illuminance Map Name
  ,                                       !- Group Rendering Name
  ,                                       !- Thermostat Name
  No;                                     !- Use Ideal Air Loads

OS:Node,
  {0d5d82c5-391f-47e9-a53d-d95b15810838}, !- Handle
  Node 2,                                 !- Name
  {bd6ec60f-23e2-4e70-bfc3-b0a7162d8b58}, !- Inlet Port
  ;                                       !- Outlet Port

OS:Connection,
  {bd6ec60f-23e2-4e70-bfc3-b0a7162d8b58}, !- Handle
  {eb829473-1a8f-491f-916b-b110546230f5}, !- Source Object
  11,                                     !- Outlet Port
  {0d5d82c5-391f-47e9-a53d-d95b15810838}, !- Target Object
  2;                                      !- Inlet Port

OS:PortList,
  {82e89650-fa99-4e81-aa25-e36384006a7e}, !- Handle
  {eb829473-1a8f-491f-916b-b110546230f5}; !- HVAC Component

OS:PortList,
  {4db69563-f81f-4460-a286-ea68535bf249}, !- Handle
  {eb829473-1a8f-491f-916b-b110546230f5}; !- HVAC Component

OS:PortList,
  {d35af233-16f4-4e51-af91-fda10f9d8fea}, !- Handle
  {eb829473-1a8f-491f-916b-b110546230f5}; !- HVAC Component

OS:Sizing:Zone,
  {6fd779e7-6bb7-4138-b0e7-056db7cec171}, !- Handle
  {eb829473-1a8f-491f-916b-b110546230f5}, !- Zone or ZoneList Name
  SupplyAirTemperature,                   !- Zone Cooling Design Supply Air Temperature Input Method
  14,                                     !- Zone Cooling Design Supply Air Temperature {C}
  11.11,                                  !- Zone Cooling Design Supply Air Temperature Difference {deltaC}
  SupplyAirTemperature,                   !- Zone Heating Design Supply Air Temperature Input Method
  40,                                     !- Zone Heating Design Supply Air Temperature {C}
  11.11,                                  !- Zone Heating Design Supply Air Temperature Difference {deltaC}
  0.0085,                                 !- Zone Cooling Design Supply Air Humidity Ratio {kg-H2O/kg-air}
  0.008,                                  !- Zone Heating Design Supply Air Humidity Ratio {kg-H2O/kg-air}
  ,                                       !- Zone Heating Sizing Factor
  ,                                       !- Zone Cooling Sizing Factor
  DesignDay,                              !- Cooling Design Air Flow Method
  ,                                       !- Cooling Design Air Flow Rate {m3/s}
  ,                                       !- Cooling Minimum Air Flow per Zone Floor Area {m3/s-m2}
  ,                                       !- Cooling Minimum Air Flow {m3/s}
  ,                                       !- Cooling Minimum Air Flow Fraction
  DesignDay,                              !- Heating Design Air Flow Method
  ,                                       !- Heating Design Air Flow Rate {m3/s}
  ,                                       !- Heating Maximum Air Flow per Zone Floor Area {m3/s-m2}
  ,                                       !- Heating Maximum Air Flow {m3/s}
  ,                                       !- Heating Maximum Air Flow Fraction
  No,                                     !- Account for Dedicated Outdoor Air System
  NeutralSupplyAir,                       !- Dedicated Outdoor Air System Control Strategy
  autosize,                               !- Dedicated Outdoor Air Low Setpoint Temperature for Design {C}
  autosize,                               !- Dedicated Outdoor Air High Setpoint Temperature for Design {C}
  Sensible Load Only No Latent Load,      !- Zone Load Sizing Method
  HumidityRatioDifference,                !- Zone Latent Cooling Design Supply Air Humidity Ratio Input Method
  ,                                       !- Zone Dehumidification Design Supply Air Humidity Ratio {kgWater/kgDryAir}
  0.005,                                  !- Zone Cooling Design Supply Air Humidity Ratio Difference {kgWater/kgDryAir}
  HumidityRatioDifference,                !- Zone Latent Heating Design Supply Air Humidity Ratio Input Method
  ,                                       !- Zone Humidification Design Supply Air Humidity Ratio {kgWater/kgDryAir}
  0.005,                                  !- Zone Humidification Design Supply Air Humidity Ratio Difference {kgWater/kgDryAir}
  ,                                       !- Zone Humidistat Dehumidification Set Point Schedule Name
  ,                                       !- Zone Humidistat Humidification Set Point Schedule Name
  ,                                       !- Design Zone Air Distribution Effectiveness in Cooling Mode
  ,                                       !- Design Zone Air Distribution Effectiveness in Heating Mode
  ,                                       !- Design Zone Secondary Recirculation Fraction {dimensionless}
  ,                                       !- Design Minimum Zone Ventilation Efficiency {dimensionless}
  Coincident;                             !- Sizing Option

OS:ZoneHVAC:EquipmentList,
  {75b55061-103e-4b2b-8e73-2f687c598727}, !- Handle
  Zone HVAC Equipment List 2,             !- Name
  {eb829473-1a8f-491f-916b-b110546230f5}; !- Thermal Zone

OS:AdditionalProperties,
  {3bfa9521-5662-4a6e-b51f-8c2a4363e2ab}, !- Handle
  {eb829473-1a8f-491f-916b-b110546230f5}, !- Object Name
  ObjectType,                             !- Feature Name 1
  String,                                 !- Feature Data Type 1
  attic - vented;                         !- Feature Value 1

OS:Space,
  {b40b91a1-3353-456e-8682-f4da99219f6c}, !- Handle
  attic - vented 1,                       !- Name
  ,                                       !- Space Type Name
  ,                                       !- Default Construction Set Name
  ,                                       !- Default Schedule Set Name
  ,                                       !- Direction of Relative North {deg}
  ,                                       !- X Origin {m}
  ,                                       !- Y Origin {m}
  ,                                       !- Z Origin {m}
  ,                                       !- Building Story Name
  {eb829473-1a8f-491f-916b-b110546230f5}, !- Thermal Zone Name
  ,                                       !- Part of Total Floor Area
  ,                                       !- Design Specification Outdoor Air Object Name
  ,                                       !- Building Unit Name
  356.389957095237;                       !- Volume {m3}

OS:Material,
  {24c53888-f9f5-416f-a33a-34686983ee4e}, !- Handle
  asphalt or fiberglass shingles,         !- Name
  Rough,                                  !- Roughness
  0.00635,                                !- Thickness {m}
  0.162714,                               !- Conductivity {W/m-K}
  1121.4,                                 !- Density {kg/m3}
  1465.45,                                !- Specific Heat {J/kg-K}
  0.9,                                    !- Thermal Absorptance
  0.85,                                   !- Solar Absorptance