
OS:Version,
  {ffa7ddd0-9cce-49a2-a706-0fe54df294d3}, !- Handle
  3.10.0;                                 !- Version Identifier

OS:SimulationControl,
  {1daec362-ee94-47aa-9c65-62a0616362ab}, !- Handle
  ,                                       !- Do Zone Sizing Calculation
  ,                                       !- Do System Sizing Calculation
  ,                                       !- Do Plant Sizing Calculation
  No;                                     !- Run Simulation for Sizing Periods

OS:Timestep,
  {90a24b92-7390-49e1-88ee-9e28dbb2a67e}, !- Handle
  1;                                      !- Number of Timesteps per Hour

OS:ShadowCalculation,
  {4a9f1177-aacf-4a54-ad38-cfba695bdb6f}, !- Handle
  PolygonClipping,                        !- Shading Calculation Method
  ,                                       !- Shading Calculation Update Frequency Method
  20,                                     !- Shading Calculation Update Frequency
  200,                                    !- Maximum Figures in Shadow Overlap Calculations
  ,                                       !- Polygon Clipping Algorithm
  512,                                    !- Pixel Counting Resolution
  ,                                       !- Sky Diffuse Modeling Algorithm
  No,                                     !- Output External Shading Calculation Results
  No,                                     !- Disable Self-Shading Within Shading Zone Groups
  No;                                     !- Disable Self-Shading From Shading Zone Groups to Other Zones

OS:SurfaceConvectionAlgorithm:Outside,
  {6d53da2c-2069-4406-ab58-6196f7e605ed}, !- Handle
  DOE-2;                                  !- Algorithm

OS:SurfaceConvectionAlgorithm:Inside,
  {9bbf01e2-619f-459e-a785-78c923250f0a}, !- Handle
  TARP;                                   !- Algorithm

OS:ZoneCapacitanceMultiplier:ResearchSpecial,
  {14686460-dbb1-4af0-ab18-95fb3ea7160c}, !- Handle
  7,                                      !- Temperature Capacity Multiplier
  15,                                     !- Humidity Capacity Multiplier
  ;                                       !- Carbon Dioxide Capacity Multiplier

OS:ConvergenceLimits,
  {faa9c709-9bc1-479e-8e18-86b5dee45d56}, !- Handle
  0;                                      !- Minimum System Timestep {minutes}

OS:RunPeriod,
  {83bbbafb-5009-40c2-91b9-e2be15fe23f5}, !- Handle
  Run Period 1,                           !- Name
  1,                                      !- Begin Month
  1,                                      !- Begin Day of Month
  12,                                     !- End Month
  31,                                     !- End Day of Month
  ,                                       !- Use Weather File Holidays and Special Days
  ,                                       !- Use Weather File Daylight Saving Period
  ,                                       !- Apply Weekend Holiday Rule
  ,                                       !- Use Weather File Rain Indicators
  ,                                       !- Use Weather File Snow Indicators
  ;                                       !- Number of Times Runperiod to be Repeated

OS:PerformancePrecisionTradeoffs,
  {70bc2bc3-04d5-4d1c-9ee4-a577ea0f5451}, !- Handle
  ,                                       !- Use Coil Direct Solutions
  CarrollMRT;                             !- Zone Radiant Exchange Algorithm

OS:WeatherFile,
  {a04fd39e-7f20-40cc-8a19-06281fa24264}, !- Handle
  Buffalo Niagara Intl Ap,                !- City
  NY,                                     !- State Province Region
  USA,                                    !- Country
  TMY3,                                   !- Data Source
  725280,                                 !- WMO Number
  42.93,                                  !- Latitude {deg}
  -78.73,                                 !- Longitude {deg}
  -5,                                     !- Time Zone {hr}
  215,                                    !- Elevation {m}
  /Users/nmoore/github/urbanopt-example-geojson-project/example_project/weather/USA_NY_Buffalo-Greater.Buffalo.Intl.AP.725280_TMY3.epw, !- Url
  6B50E0FF,                               !- Checksum
  ,                                       !- Start Date Actual Year
  Sunday;                                 !- Start Day of Week

OS:YearDescription,
  {9cff4dd6-6880-44ce-9cb7-6907490437af}, !- Handle
  2007,                                   !- Calendar Year
  ,                                       !- Day of Week for Start Day
  ;                                       !- Is Leap Year

OS:Site,
  {ac8c06c6-4be1-40a0-9601-a93e7b895fcf}, !- Handle
  Buffalo Niagara Intl Ap_NY,             !- Name
  42.93,                                  !- Latitude {deg}
  -78.73,                                 !- Longitude {deg}
  -5,                                     !- Time Zone {hr}
  215,                                    !- Elevation {m}
  Suburbs,                                !- Terrain
  Yes;                                    !- Keep Site Location Information

OS:RunPeriodControl:DaylightSavingTime,
  {010b31bd-0866-4e71-9131-fbc17772989e}, !- Handle
  Mar 12,                                 !- Start Date
  Nov 5;                                  !- End Date

OS:Site:GroundTemperature:Shallow,
  {798678b9-aae8-49c1-843d-6d8ff235df46}, !- Handle
  4.30207395723828,                       !- January Surface Ground Temperature {C}
  2.29327249652502,                       !- February Surface Ground Temperature {C}
  2.13240047156047,                       !- March Surface Ground Temperature {C}
  3.08567940719286,                       !- April Surface Ground Temperature {C}
  6.91256312497526,                       !- May Surface Ground Temperature {C}
  10.7216195949507,                       !- June Surface Ground Temperature {C}
  14.0238679822574,                       !- July Surface Ground Temperature {C}
  16.1157611184724,                       !- August Surface Ground Temperature {C}
  16.2934789303462,                       !- September Surface Ground Temperature {C}
  14.5920754632847,                       !- October Surface Ground Temperature {C}
  11.374036348653,                        !- November Surface Ground Temperature {C}
  7.68182621661674;                       !- December Surface Ground Temperature {C}

OS:ThermalZone,
  {9680a980-5163-464c-b2b6-dc71a1d4c86d}, !- Handle
  conditioned space,                      !- Name
  1,                                      !- Multiplier
  ,                                       !- Ceiling Height {m}
  692.06373070848,                        !- Volume {m3}
  ,                                       !- Floor Area {m2}
  ,                                       !- Zone Inside Convection Algorithm
  ,                                       !- Zone Outside Convection Algorithm
  ,                                       !- Zone Conditioning Equipment List Name
  {315fb83e-4bf4-4df1-8131-40215c303610}, !- Zone Air Inlet Port List
  {9fb65ede-5721-4f5c-9fe3-378200d3f9e6}, !- Zone Air Exhaust Port List
  {a7f3ad31-7ba7-4392-9e24-9ce83ff3bcc9}, !- Zone Air Node Name
  {3e458199-6024-4d00-8ea1-13e020575730}, !- Zone Return Air Port List
  ,                                       !- Primary Daylighting Control Name
  ,                                       !- Fraction of Zone Controlled by Primary Daylighting Control
  ,                                       !- Secondary Daylighting Control Name
  ,                                       !- Fraction of Zone Controlled by Secondary Daylighting Control
  ,                                       !- Illuminance Map Name
  ,                                       !- Group Rendering Name
  {0f90de61-7af5-4879-9433-925b2c910a4a}, !- Thermostat Name
  No;                                     !- Use Ideal Air Loads

OS:Node,
  {01d78d5d-4b3f-49ae-9831-1368fbb8a684}, !- Handle
  Node 1,                                 !- Name
  {a7f3ad31-7ba7-4392-9e24-9ce83ff3bcc9}, !- Inlet Port
  ;                                       !- Outlet Port

OS:Connection,
  {a7f3ad31-7ba7-4392-9e24-9ce83ff3bcc9}, !- Handle
  {9680a980-5163-464c-b2b6-dc71a1d4c86d}, !- Source Object
  11,                                     !- Outlet Port
  {01d78d5d-4b3f-49ae-9831-1368fbb8a684}, !- Target Object
  2;                                      !- Inlet Port

OS:PortList,
  {315fb83e-4bf4-4df1-8131-40215c303610}, !- Handle
  {9680a980-5163-464c-b2b6-dc71a1d4c86d}, !- HVAC Component
  {a5da80c0-6dfe-4eec-91da-13ff6e1e749c}; !- Port 1

OS:PortList,
  {9fb65ede-5721-4f5c-9fe3-378200d3f9e6}, !- Handle
  {9680a980-5163-464c-b2b6-dc71a1d4c86d}; !- HVAC Component

OS:PortList,
  {3e458199-6024-4d00-8ea1-13e020575730}, !- Handle
  {9680a980-5163-464c-b2b6-dc71a1d4c86d}, !- HVAC Component
  {c8b06084-73da-45a8-9f96-64b7939d6491}; !- Port 1

OS:Sizing:Zone,
  {f151c2ab-1e3a-4729-880d-2d77b015b64e}, !- Handle
  {9680a980-5163-464c-b2b6-dc71a1d4c86d}, !- Zone or ZoneList Name
  SupplyAirTemperature,                   !- Zone Cooling Design Supply Air Temperature Input Method
  14,                                     !- Zone Cooling Design Supply Air Temperature {C}
  11.11,                                  !- Zone Cooling Design Supply Air Temperature Difference {deltaC}
  SupplyAirTemperature,                   !- Zone Heating Design Supply Air Temperature Input Method
  40,                                     !- Zone Heating Design Supply Air Temperature {C}
  11.11,                                  !- Zone Heating Design Supply Air Temperature Difference {deltaC}
  0.0085,                                 !- Zone Cooling Design Supply Air Humidity Ratio {kg-H2O/kg-air}
  0.008,                                  !- Zone Heating Design Supply Air Humidity Ratio {kg-H2O/kg-air}
  ,                                       !- Zone Heating Sizing Factor
  ,                                       !- Zone Cooling Sizing Factor
  DesignDay,                              !- Cooling Design Air Flow Method
  ,                                       !- Cooling Design Air Flow Rate {m3/s}
  ,                                       !- Cooling Minimum Air Flow per Zone Floor Area {m3/s-m2}
  ,                                       !- Cooling Minimum Air Flow {m3/s}
  ,                                       !- Cooling Minimum Air Flow Fraction
  DesignDay,                              !- Heating Design Air Flow Method
  ,                                       !- Heating Design Air Flow Rate {m3/s}
  ,                                       !- Heating Maximum Air Flow per Zone Floor Area {m3/s-m2}
  ,                                       !- Heating Maximum Air Flow {m3/s}
  ,                                       !- Heating Maximum Air Flow Fraction
  No,                                     !- Account for Dedicated Outdoor Air System
  NeutralSupplyAir,                       !- Dedicated Outdoor Air System Control Strategy
  autosize,                               !- Dedicated Outdoor Air Low Setpoint Temperature for Design {C}
  autosize,                               !- Dedicated Outdoor Air High Setpoint Temperature for Design {C}
  Sensible Load Only No Latent Load,      !- Zone Load Sizing Method
  HumidityRatioDifference,                !- Zone Latent Cooling Design Supply Air Humidity Ratio Input Method
  ,                                       !- Zone Dehumidification Design Supply Air Humidity Ratio {kgWater/kgDryAir}
  0.005,                                  !- Zone Cooling Design Supply Air Humidity Ratio Difference {kgWater/kgDryAir}
  HumidityRatioDifference,                !- Zone Latent Heating Design Supply Air Humidity Ratio Input Method
  ,                                       !- Zone Humidification Design Supply Air Humidity Ratio {kgWater/kgDryAir}
  0.005,                                  !- Zone Humidification Design Supply Air Humidity Ratio Difference {kgWater/kgDryAir}
  ,                                       !- Zone Humidistat Dehumidification Set Point Schedule Name
  ,                                       !- Zone Humidistat Humidification Set Point Schedule Name
  ,                                       !- Design Zone Air Distribution Effectiveness in Cooling Mode
  ,                                       !- Design Zone Air Distribution Effectiveness in Heating Mode
  ,                                       !- Design Zone Secondary Recirculation Fraction {dimensionless}
  ,                                       !- Design Minimum Zone Ventilation Efficiency {dimensionless}
  Coincident;                             !- Sizing Option

OS:ZoneHVAC:EquipmentList,
  {fc132e56-2719-4eff-b454-718d2aa89952}, !- Handle
  Zone HVAC Equipment List 1,             !- Name
  {9680a980-5163-464c-b2b6-dc71a1d4c86d}, !- Thermal Zone
  ,                                       !- Load Distribution Scheme
  {cc5d93cf-fc57-41bc-9051-7e18c9f815f7}, !- Zone Equipment 1
  1,                                      !- Zone Equipment Cooling Sequence 1
  1,                                      !- Zone Equipment Heating or No-Load Sequence 1
  {37656d71-0d40-49ae-8a99-a6e825dcdc49}, !- Zone Equipment Sequential Cooling Fraction Schedule Name 1
  {5d4eb4b4-4ce4-42a7-8ec1-4b6ef07324c2}; !- Zone Equipment Sequential Heating Fraction Schedule Name 1

OS:AdditionalProperties,
  {a484cba3-b816-4806-a02a-c0199cdb1fe2}, !- Handle
  {9680a980-5163-464c-b2b6-dc71a1d4c86d}, !- Object Name
  ObjectType,                             !- Feature Name 1
  String,                                 !- Feature Data Type 1
  conditioned space;                      !- Feature Value 1

OS:Space,
  {4f959cfe-0919-4caf-b581-30525637eb10}, !- Handle
  conditioned space 1,                    !- Name
  ,                                       !- Space Type Name
  ,                                       !- Default Construction Set Name
  ,                                       !- Default Schedule Set Name
  ,                                       !- Direction of Relative North {deg}
  ,                                       !- X Origin {m}
  ,                                       !- Y Origin {m}
  ,                                       !- Z Origin {m}
  ,                                       !- Building Story Name
  {9680a980-5163-464c-b2b6-dc71a1d4c86d}, !- Thermal Zone Name
  ,                                       !- Part of Total Floor Area
  ,                                       !- Design Specification Outdoor Air Object Name
  ,                                       !- Building Unit Name
  692.06373070848;                        !- Volume {m3}

OS:Schedule:Ruleset,
  {743e8c36-4ad2-436f-a57f-c275214d7945}, !- Handle
  heating setpoint,                       !- Name
  {e8512a9e-9eda-43ab-a5bf-9162770a93a0}, !- Schedule Type Limits Name
  {ab9656c6-4034-4278-8084-a0fdde34b2c9}; !- Default Day Schedule Name

OS:Schedule:Day,
  {ab9656c6-4034-4278-8084-a0fdde34b2c9}, !- Handle
  heating setpoint default day,           !- Name
  {e8512a9e-9eda-43ab-a5bf-9162770a93a0}, !- Schedule Type Limits Name
  ,                                       !- Interpolate to Timestep
  24,                                     !- Hour 1
  0,                                      !- Minute 1
  0;                                      !- Value Until Time 1

OS:Schedule:Rule,
  {31d99f61-d45e-4d7f-af32-94d34d243d7c}, !- Handle
  heating setpoint allday rule,           !- Name
  {743e8c36-4ad2-436f-a57f-c275214d7945}, !- Schedule Ruleset Name
  0,                                      !- Rule Order
  {e5ec9856-7bbc-4b0f-9a88-533a5fd5f443}, !- Day Schedule Name
  Yes,                                    !- Apply Sunday
  Yes,                                    !- Apply Monday
  Yes,                                    !- Apply Tuesday
  Yes,                                    !- Apply Wednesday
  Yes,                                    !- Apply Thursday
  Yes,                                    !- Apply Friday
  Yes,                                    !- Apply Saturday
  DateRange,                              !- Date Specification Type
  1,                                      !- Start Month
  1,                                      !- Start Day
  12,                                     !- End Month
  31;                                     !- End Day

OS:Schedule:Day,
  {e5ec9856-7bbc-4b0f-9a88-533a5fd5f443}, !- Handle
  heating setpoint day,                   !- Name
  {e8512a9e-9eda-43ab-a5bf-9162770a93a0}, !- Schedule Type Limits Name
  ,                                       !- Interpolate to Timestep
  24,                                     !- Hour 1
  0,                                      !- Minute 1
  20;                                     !- Value Until Time 1

OS:Schedule:Ruleset,
  {3f2170a8-fb3f-4a09-a68d-541b7dd93ba2}, !- Handle
  cooling setpoint,                       !- Name
  {e8512a9e-9eda-43ab-a5bf-9162770a93a0}, !- Schedule Type Limits Name
  {d4e71359-9ce4-43c4-a0f9-e0cb7ab71d8c}; !- Default Day Schedule Name

OS:Schedule:Day,
  {d4e71359-9ce4-43c4-a0f9-e0cb7ab71d8c}, !- Handle
  cooling setpoint default day,           !- Name
  {e8512a9e-9eda-43ab-a5bf-9162770a93a0}, !- Schedule Type Limits Name
  ,                                       !- Interpolate to Timestep
  24,                                     !- Hour 1
  0,                                      !- Minute 1
  0;                                      !- Value Until Time 1

OS:Schedule:Rule,
  {aa07febe-a1e2-4343-9a41-e062d6edfcd4}, !- Handle
  cooling setpoint allday rule,           !- Name
  {3f2170a8-fb3f-4a09-a68d-541b7dd93ba2}, !- Schedule Ruleset Name
  0,                                      !- Rule Order
  {1df9e027-0891-477e-ab48-97584356f04d}, !- Day Schedule Name
  Yes,                                    !- Apply Sunday
  Yes,                                    !- Apply Monday
  Yes,                                    !- Apply Tuesday
  Yes,                                    !- Apply Wednesday
  Yes,                                    !- Apply Thursday
  Yes,                                    !- Apply Friday
  Yes,                                    !- Apply Saturday
  DateRange,                              !- Date Specification Type
  1,                                      !- Start Month
  1,                                      !- Start Day
  12,                                     !- End Month
  31;                                     !- End Day

OS:Schedule:Day,
  {1df9e027-0891-477e-ab48-97584356f04d}, !- Handle
  cooling setpoint day,                   !- Name
  {e8512a9e-9eda-43ab-a5bf-9162770a93a0}, !- Schedule Type Limits Name
  ,                                       !- Interpolate to Timestep
  24,                                     !- Hour 1
  0,                                      !- Minute 1
  25.5555555555556;                       !- Value Until Time 1

OS:ThermostatSetpoint:DualSetpoint,
  {0f90de61-7af5-4879-9433-925b2c910a4a}, !- Handle
  conditioned space temperature setpoint, !- Name
  {743e8c36-4ad2-436f-a57f-c275214d7945}, !- Heating Setpoint Temperature Schedule Name
  {3f2170a8-fb3f-4a09-a68d-541b7dd93ba2}, !- Cooling Setpoint Temperature Schedule Name
  0;                                      !- Temperature Difference Between Cutout And Setpoint {deltaC}

OS:ScheduleTypeLimits,
  {e8512a9e-9eda-43ab-a5bf-9162770a93a0}, !- Handle
  Temperature,                            !- Name
  ,                                       !- Lower Limit Value
  ,                                       !- Upper Limit Value
  Continuous,                             !- Numeric Type
  Temperature;                            !- Unit Type

OS:Surface,
  {1de1a3d4-3565-4baf-81d7-7ae69470814d}, !- Handle
  Roof1,                                  !- Name
  RoofCeiling,                            !- Surface Type
  {952f6c68-15cd-4747-952d-2a516dac09a4}, !- Construction Name
  {3643239a-c7e4-4db7-9def-aa64dc0595ed}, !- Space Name
  Outdoors,                               !- Outside Boundary Condition
  ,                                       !- Outside Boundary Condition Object
  SunExposed,                             !- Sun Exposure
  WindExposed,                            !- Wind Exposure
  ,                                       !- View Factor to Ground
  ,                                       !- Number of Vertices
  -26.9347048849634, 58.0557891618865, 2.4384, !- X,Y,Z Vertex 1 {m}
  -26.9347048849634, 46.7895631136661, 8.0715130241102, !- X,Y,Z Vertex 2 {m}
  -14.3386812381136, 46.7895631136661, 8.0715130241102, !- X,Y,Z Vertex 3 {m}
  -14.3386812381136, 58.0557891618865, 2.4384; !- X,Y,Z Vertex 4 {m}

OS:AdditionalProperties,
  {84952c3c-1a9c-49c2-9ef6-cdd76172f268}, !- Handle
  {1de1a3d4-3565-4baf-81d7-7ae69470814d}, !- Object Name
  Length,                                 !- Feature Name 1
  Double,                                 !- Feature Data Type 1
  41.325536899113608,                     !- Feature Value 1
  Width,                                  !- Feature Name 2
  Double,                                 !- Feature Data Type 2
  41.325536899113601,                     !- Feature Value 2
  Azimuth,                                !- Feature Name 3
  Integer,                                !- Feature Data Type 3
  0,                                      !- Feature Value 3
  Tilt,                                   !- Feature Name 4
  Double,                                 !- Feature Data Type 4
  0.5,                                    !- Feature Value 4
  SurfaceType,                            !- Feature Name 5
  String,                                 !- Feature Data Type 5
  Roof;                                   !- Feature Value 5

OS:ThermalZone,
  {191bc846-7faf-43da-b251-e4948a5761fa}, !- Handle
  attic - vented,                         !- Name
  1,                                      !- Multiplier
  ,                                       !- Ceiling Height {m}
  356.390921899745,                       !- Volume {m3}
  ,                                       !- Floor Area {m2}
  ,                                       !- Zone Inside Convection Algorithm
  ,                                       !- Zone Outside Convection Algorithm
  ,                                       !- Zone Conditioning Equipment List Name
  {1859123d-514d-451c-adfd-2b3370836389}, !- Zone Air Inlet Port List
  {a26ef1ca-947f-46aa-b9c7-07c01afcb82d}, !- Zone Air Exhaust Port List
  {64310a9f-4702-4821-b618-b422a6cecfd8}, !- Zone Air Node Name
  {baad9251-c9ed-4be2-bdf4-b2f423dbbacf}, !- Zone Return Air Port List
  ,                                       !- Primary Daylighting Control Name
  ,                                       !- Fraction of Zone Controlled by Primary Daylighting Control
  ,                                       !- Secondary Daylighting Control Name
  ,                                       !- Fraction of Zone Controlled by Secondary Daylighting Control
  ,                                       !- Illuminance Map Name
  ,                                       !- Group Rendering Name
  ,                                       !- Thermostat Name
  No;                                     !- Use Ideal Air Loads

OS:Node,
  {74529d08-e93a-4894-8485-f04166b17143}, !- Handle
  Node 2,                                 !- Name
  {64310a9f-4702-4821-b618-b422a6cecfd8}, !- Inlet Port
  ;                                       !- Outlet Port

OS:Connection,
  {64310a9f-4702-4821-b618-b422a6cecfd8}, !- Handle
  {191bc846-7faf-43da-b251-e4948a5761fa}, !- Source Object
  11,                                     !- Outlet Port
  {74529d08-e93a-4894-8485-f04166b17143}, !- Target Object
  2;                                      !- Inlet Port

OS:PortList,
  {1859123d-514d-451c-adfd-2b3370836389}, !- Handle
  {191bc846-7faf-43da-b251-e4948a5761fa}; !- HVAC Component

OS:PortList,
  {a26ef1ca-947f-46aa-b9c7-07c01afcb82d}, !- Handle
  {191bc846-7faf-43da-b251-e4948a5761fa}; !- HVAC Component

OS:PortList,
  {baad9251-c9ed-4be2-bdf4-b2f423dbbacf}, !- Handle
  {191bc846-7faf-43da-b251-e4948a5761fa}; !- HVAC Component

OS:Sizing:Zone,
  {94ecabc6-3d37-4c5c-9a8c-49a5aafb31c0}, !- Handle
  {191bc846-7faf-43da-b251-e4948a5761fa}, !- Zone or ZoneList Name
  SupplyAirTemperature,                   !- Zone Cooling Design Supply Air Temperature Input Method
  14,                                     !- Zone Cooling Design Supply Air Temperature {C}
  11.11,                                  !- Zone Cooling Design Supply Air Temperature Difference {deltaC}
  SupplyAirTemperature,                   !- Zone Heating Design Supply Air Temperature Input Method
  40,                                     !- Zone Heating Design Supply Air Temperature {C}
  11.11,                                  !- Zone Heating Design Supply Air Temperature Difference {deltaC}
  0.0085,                                 !- Zone Cooling Design Supply Air Humidity Ratio {kg-H2O/kg-air}
  0.008,                                  !- Zone Heating Design Supply Air Humidity Ratio {kg-H2O/kg-air}
  ,                                       !- Zone Heating Sizing Factor
  ,                                       !- Zone Cooling Sizing Factor
  DesignDay,                              !- Cooling Design Air Flow Method
  ,                                       !- Cooling Design Air Flow Rate {m3/s}
  ,                                       !- Cooling Minimum Air Flow per Zone Floor Area {m3/s-m2}
  ,                                       !- Cooling Minimum Air Flow {m3/s}
  ,                                       !- Cooling Minimum Air Flow Fraction
  DesignDay,                              !- Heating Design Air Flow Method
  ,                                       !- Heating Design Air Flow Rate {m3/s}
  ,                                       !- Heating Maximum Air Flow per Zone Floor Area {m3/s-m2}
  ,                                       !- Heating Maximum Air Flow {m3/s}
  ,                                       !- Heating Maximum Air Flow Fraction
  No,                                     !- Account for Dedicated Outdoor Air System
  NeutralSupplyAir,                       !- Dedicated Outdoor Air System Control Strategy
  autosize,                               !- Dedicated Outdoor Air Low Setpoint Temperature for Design {C}
  autosize,                               !- Dedicated Outdoor Air High Setpoint Temperature for Design {C}
  Sensible Load Only No Latent Load,      !- Zone Load Sizing Method
  HumidityRatioDifference,                !- Zone Latent Cooling Design Supply Air Humidity Ratio Input Method
  ,                                       !- Zone Dehumidification Design Supply Air Humidity Ratio {kgWater/kgDryAir}
  0.005,                                  !- Zone Cooling Design Supply Air Humidity Ratio Difference {kgWater/kgDryAir}
  HumidityRatioDifference,                !- Zone Latent Heating Design Supply Air Humidity Ratio Input Method
  ,                                       !- Zone Humidification Design Supply Air Humidity Ratio {kgWater/kgDryAir}
  0.005,                                  !- Zone Humidification Design Supply Air Humidity Ratio Difference {kgWater/kgDryAir}
  ,                                       !- Zone Humidistat Dehumidification Set Point Schedule Name
  ,                                       !- Zone Humidistat Humidification Set Point Schedule Name
  ,                                       !- Design Zone Air Distribution Effectiveness in Cooling Mode
  ,                                       !- Design Zone Air Distribution Effectiveness in Heating Mode
  ,                                       !- Design Zone Secondary Recirculation Fraction {dimensionless}
  ,                                       !- Design Minimum Zone Ventilation Efficiency {dimensionless}
  Coincident;                             !- Sizing Option

OS:ZoneHVAC:EquipmentList,
  {a3c8efbd-077d-4a87-90cf-c4f05a682f73}, !- Handle
  Zone HVAC Equipment List 2,             !- Name
  {191bc846-7faf-43da-b251-e4948a5761fa}; !- Thermal Zone

OS:AdditionalProperties,
  {1e359c02-645f-4962-ba18-ea8930a26eea}, !- Handle
  {191bc846-7faf-43da-b251-e4948a5761fa}, !- Object Name
  ObjectType,                             !- Feature Name 1
  String,                                 !- Feature Data Type 1
  attic - vented;                         !- Feature Value 1

OS:Space,
  {3643239a-c7e4-4db7-9def-aa64dc0595ed}, !- Handle
  attic - vented 1,                       !- Name
  ,                                       !- Space Type Name
  ,                                       !- Default Construction Set Name
  ,                                       !- Default Schedule Set Name
  ,                                       !- Direction of Relative North {deg}
  ,                                       !- X Origin {m}
  ,                                       !- Y Origin {m}
  ,                                       !- Z Origin {m}
  ,                                       !- Building Story Name
  {191bc846-7faf-43da-b251-e4948a5761fa}, !- Thermal Zone Name
  ,                                       !- Part of Total Floor Area
  ,                                       !- Design Specification Outdoor Air Object Name
  ,                                       !- Building Unit Name
  356.390921899745;                       !- Volume {m3}

OS:Material,
  {5860f666-3b62-4335-951d-182870087908}, !- Handle
  asphalt or fiberglass shingles,         !- Name
  Rough,                                  !- Roughness
  0.00635,                                !- Thickness {m}
  0.162714,                               !- Conductivity {W/m-K}
  1121.4,                                 !- Density {kg/m3}
  1465.45,                                !- Specific Heat {J/kg-K}
  0.9,                                    !- Thermal Absorptance
  0.85,                                   !- Solar Absorptance