
OS:Version,
  {b9f76c16-3d0e-409f-b7ff-c4f5dee5169f}, !- Handle
  3.9.0;                                  !- Version Identifier

OS:SimulationControl,
  {13f9c1d5-cb7a-40ca-af0a-ef551140dfcd}, !- Handle
  ,                                       !- Do Zone Sizing Calculation
  ,                                       !- Do System Sizing Calculation
  ,                                       !- Do Plant Sizing Calculation
  No;                                     !- Run Simulation for Sizing Periods

OS:Timestep,
  {dd6e7390-8400-4190-ae05-0c5df498f9af}, !- Handle
  1;                                      !- Number of Timesteps per Hour

OS:ShadowCalculation,
  {2d4eb7dd-c2af-413b-90d6-249c3a1fbeb9}, !- Handle
  PolygonClipping,                        !- Shading Calculation Method
  ,                                       !- Shading Calculation Update Frequency Method
  20,                                     !- Shading Calculation Update Frequency
  200,                                    !- Maximum Figures in Shadow Overlap Calculations
  ,                                       !- Polygon Clipping Algorithm
  512,                                    !- Pixel Counting Resolution
  ,                                       !- Sky Diffuse Modeling Algorithm
  No,                                     !- Output External Shading Calculation Results
  No,                                     !- Disable Self-Shading Within Shading Zone Groups
  No;                                     !- Disable Self-Shading From Shading Zone Groups to Other Zones

OS:SurfaceConvectionAlgorithm:Outside,
  {7ddfeef1-2856-43ee-bc4b-3cfa3a05f7b2}, !- Handle
  DOE-2;                                  !- Algorithm

OS:SurfaceConvectionAlgorithm:Inside,
  {5f0cddd6-d3be-478d-83f6-d38528bf5182}, !- Handle
  TARP;                                   !- Algorithm

OS:ZoneCapacitanceMultiplier:ResearchSpecial,
  {0babc8af-24ee-473b-a4ab-373406cccb12}, !- Handle
  7,                                      !- Temperature Capacity Multiplier
  15,                                     !- Humidity Capacity Multiplier
  ;                                       !- Carbon Dioxide Capacity Multiplier

OS:ConvergenceLimits,
  {8be21d51-5055-4de1-909b-3c00e1969c62}, !- Handle
  0;                                      !- Minimum System Timestep {minutes}

OS:RunPeriod,
  {f90845b9-fcb3-400d-9c09-98ac72986351}, !- Handle
  Run Period 1,                           !- Name
  1,                                      !- Begin Month
  1,                                      !- Begin Day of Month
  12,                                     !- End Month
  31,                                     !- End Day of Month
  ,                                       !- Use Weather File Holidays and Special Days
  ,                                       !- Use Weather File Daylight Saving Period
  ,                                       !- Apply Weekend Holiday Rule
  ,                                       !- Use Weather File Rain Indicators
  ,                                       !- Use Weather File Snow Indicators
  ;                                       !- Number of Times Runperiod to be Repeated

OS:PerformancePrecisionTradeoffs,
  {f8ef6eab-198a-4dce-abd7-eeedbc3bbfa7}, !- Handle
  ,                                       !- Use Coil Direct Solutions
  CarrollMRT;                             !- Zone Radiant Exchange Algorithm

OS:WeatherFile,
  {b6d28996-4b12-4eb9-a094-dc917b3f394f}, !- Handle
  Buffalo Niagara Intl Ap,                !- City
  NY,                                     !- State Province Region
  USA,                                    !- Country
  TMY3,                                   !- Data Source
  725280,                                 !- WMO Number
  42.93,                                  !- Latitude {deg}
  -78.73,                                 !- Longitude {deg}
  -5,                                     !- Time Zone {hr}
  215,                                    !- Elevation {m}
  /Users/nmoore/github/urbanopt-example-geojson-project/example_project/weather/USA_NY_Buffalo-Greater.Buffalo.Intl.AP.725280_TMY3.epw, !- Url
  6B50E0FF,                               !- Checksum
  ,                                       !- Start Date Actual Year
  Sunday;                                 !- Start Day of Week

OS:YearDescription,
  {18e8a7f6-cbda-492d-bd0b-bdce356dc20d}, !- Handle
  2007,                                   !- Calendar Year
  ,                                       !- Day of Week for Start Day
  ;                                       !- Is Leap Year

OS:Site,
  {9f7a5722-cefd-4b38-af94-47da223b3175}, !- Handle
  Buffalo Niagara Intl Ap_NY,             !- Name
  42.93,                                  !- Latitude {deg}
  -78.73,                                 !- Longitude {deg}
  -5,                                     !- Time Zone {hr}
  215,                                    !- Elevation {m}
  Suburbs,                                !- Terrain
  Yes;                                    !- Keep Site Location Information

OS:RunPeriodControl:DaylightSavingTime,
  {22b72618-d3a2-45f5-8d4f-351877901ab5}, !- Handle
  Mar 12,                                 !- Start Date
  Nov 5;                                  !- End Date

OS:Site:GroundTemperature:Shallow,
  {f87b7213-273b-4275-981e-5aca94285063}, !- Handle
  4.30207395723828,                       !- January Surface Ground Temperature {C}
  2.29327249652502,                       !- February Surface Ground Temperature {C}
  2.13240047156047,                       !- March Surface Ground Temperature {C}
  3.08567940719286,                       !- April Surface Ground Temperature {C}
  6.91256312497526,                       !- May Surface Ground Temperature {C}
  10.7216195949507,                       !- June Surface Ground Temperature {C}
  14.0238679822574,                       !- July Surface Ground Temperature {C}
  16.1157611184724,                       !- August Surface Ground Temperature {C}
  16.2934789303462,                       !- September Surface Ground Temperature {C}
  14.5920754632847,                       !- October Surface Ground Temperature {C}
  11.374036348653,                        !- November Surface Ground Temperature {C}
  7.68182621661674;                       !- December Surface Ground Temperature {C}

OS:ThermalZone,
  {880fa09f-670b-427b-a5bc-089751f146b3}, !- Handle
  conditioned space,                      !- Name
  1,                                      !- Multiplier
  ,                                       !- Ceiling Height {m}
  692.06373070848,                        !- Volume {m3}
  ,                                       !- Floor Area {m2}
  ,                                       !- Zone Inside Convection Algorithm
  ,                                       !- Zone Outside Convection Algorithm
  ,                                       !- Zone Conditioning Equipment List Name
  {1a4826e2-5e8b-48ed-bfeb-5bb55c5a64b3}, !- Zone Air Inlet Port List
  {596e7591-191f-4250-b5fe-fa3b550defbb}, !- Zone Air Exhaust Port List
  {8a7c9395-1bce-42a3-8514-5931885c8b66}, !- Zone Air Node Name
  {8ac2dfeb-edac-415b-8d78-d5e6f6a0c345}, !- Zone Return Air Port List
  ,                                       !- Primary Daylighting Control Name
  ,                                       !- Fraction of Zone Controlled by Primary Daylighting Control
  ,                                       !- Secondary Daylighting Control Name
  ,                                       !- Fraction of Zone Controlled by Secondary Daylighting Control
  ,                                       !- Illuminance Map Name
  ,                                       !- Group Rendering Name
  {86410718-8e05-4c3b-967e-e8bf45c178f6}, !- Thermostat Name
  No;                                     !- Use Ideal Air Loads

OS:Node,
  {99d8c4c9-bfb2-4b2c-9c8c-81f49f74f311}, !- Handle
  Node 1,                                 !- Name
  {8a7c9395-1bce-42a3-8514-5931885c8b66}, !- Inlet Port
  ;                                       !- Outlet Port

OS:Connection,
  {8a7c9395-1bce-42a3-8514-5931885c8b66}, !- Handle
  {880fa09f-670b-427b-a5bc-089751f146b3}, !- Source Object
  11,                                     !- Outlet Port
  {99d8c4c9-bfb2-4b2c-9c8c-81f49f74f311}, !- Target Object
  2;                                      !- Inlet Port

OS:PortList,
  {1a4826e2-5e8b-48ed-bfeb-5bb55c5a64b3}, !- Handle
  {880fa09f-670b-427b-a5bc-089751f146b3}, !- HVAC Component
  {4e5e7d5c-8d4d-4bd3-b28b-d25a2b1479a3}; !- Port 1

OS:PortList,
  {596e7591-191f-4250-b5fe-fa3b550defbb}, !- Handle
  {880fa09f-670b-427b-a5bc-089751f146b3}; !- HVAC Component

OS:PortList,
  {8ac2dfeb-edac-415b-8d78-d5e6f6a0c345}, !- Handle
  {880fa09f-670b-427b-a5bc-089751f146b3}, !- HVAC Component
  {ae4d80ad-f5ea-48fe-b89f-0e85c75ac04a}; !- Port 1

OS:Sizing:Zone,
  {90e5829c-d212-4ba0-91ef-bbed1b2ff382}, !- Handle
  {880fa09f-670b-427b-a5bc-089751f146b3}, !- Zone or ZoneList Name
  SupplyAirTemperature,                   !- Zone Cooling Design Supply Air Temperature Input Method
  14,                                     !- Zone Cooling Design Supply Air Temperature {C}
  11.11,                                  !- Zone Cooling Design Supply Air Temperature Difference {deltaC}
  SupplyAirTemperature,                   !- Zone Heating Design Supply Air Temperature Input Method
  40,                                     !- Zone Heating Design Supply Air Temperature {C}
  11.11,                                  !- Zone Heating Design Supply Air Temperature Difference {deltaC}
  0.0085,                                 !- Zone Cooling Design Supply Air Humidity Ratio {kg-H2O/kg-air}
  0.008,                                  !- Zone Heating Design Supply Air Humidity Ratio {kg-H2O/kg-air}
  ,                                       !- Zone Heating Sizing Factor
  ,                                       !- Zone Cooling Sizing Factor
  DesignDay,                              !- Cooling Design Air Flow Method
  ,                                       !- Cooling Design Air Flow Rate {m3/s}
  ,                                       !- Cooling Minimum Air Flow per Zone Floor Area {m3/s-m2}
  ,                                       !- Cooling Minimum Air Flow {m3/s}
  ,                                       !- Cooling Minimum Air Flow Fraction
  DesignDay,                              !- Heating Design Air Flow Method
  ,                                       !- Heating Design Air Flow Rate {m3/s}
  ,                                       !- Heating Maximum Air Flow per Zone Floor Area {m3/s-m2}
  ,                                       !- Heating Maximum Air Flow {m3/s}
  ,                                       !- Heating Maximum Air Flow Fraction
  No,                                     !- Account for Dedicated Outdoor Air System
  NeutralSupplyAir,                       !- Dedicated Outdoor Air System Control Strategy
  autosize,                               !- Dedicated Outdoor Air Low Setpoint Temperature for Design {C}
  autosize,                               !- Dedicated Outdoor Air High Setpoint Temperature for Design {C}
  Sensible Load Only No Latent Load,      !- Zone Load Sizing Method
  HumidityRatioDifference,                !- Zone Latent Cooling Design Supply Air Humidity Ratio Input Method
  ,                                       !- Zone Dehumidification Design Supply Air Humidity Ratio {kgWater/kgDryAir}
  0.005,                                  !- Zone Cooling Design Supply Air Humidity Ratio Difference {kgWater/kgDryAir}
  HumidityRatioDifference,                !- Zone Latent Heating Design Supply Air Humidity Ratio Input Method
  ,                                       !- Zone Humidification Design Supply Air Humidity Ratio {kgWater/kgDryAir}
  0.005,                                  !- Zone Humidification Design Supply Air Humidity Ratio Difference {kgWater/kgDryAir}
  ,                                       !- Zone Humidistat Dehumidification Set Point Schedule Name
  ,                                       !- Zone Humidistat Humidification Set Point Schedule Name
  ,                                       !- Design Zone Air Distribution Effectiveness in Cooling Mode
  ,                                       !- Design Zone Air Distribution Effectiveness in Heating Mode
  ,                                       !- Design Zone Secondary Recirculation Fraction {dimensionless}
  ,                                       !- Design Minimum Zone Ventilation Efficiency {dimensionless}
  Coincident;                             !- Sizing Option

OS:ZoneHVAC:EquipmentList,
  {8f04c737-5de8-4619-a647-05192bb9fc0c}, !- Handle
  Zone HVAC Equipment List 1,             !- Name
  {880fa09f-670b-427b-a5bc-089751f146b3}, !- Thermal Zone
  ,                                       !- Load Distribution Scheme
  {76b5f4c9-7ec5-4577-a87d-f0f5657b6a8a}, !- Zone Equipment 1
  1,                                      !- Zone Equipment Cooling Sequence 1
  1,                                      !- Zone Equipment Heating or No-Load Sequence 1
  {8e4af99f-7f30-4b00-83bd-4312c1cb1dc1}, !- Zone Equipment Sequential Cooling Fraction Schedule Name 1
  {9a06da99-e7ae-4b8d-8826-dafb35234b31}, !- Zone Equipment Sequential Heating Fraction Schedule Name 1
  {9b0b19ab-a722-46c3-b3f6-f1b8828cd706}, !- Zone Equipment 2
  2,                                      !- Zone Equipment Cooling Sequence 2
  2,                                      !- Zone Equipment Heating or No-Load Sequence 2
  {c7b71bdf-6682-4836-bb4c-214642e31696}, !- Zone Equipment Sequential Cooling Fraction Schedule Name 2
  {2809dc5d-7cbd-4f28-a8f6-1807e504e133}; !- Zone Equipment Sequential Heating Fraction Schedule Name 2

OS:AdditionalProperties,
  {03c03f9e-dd54-4e83-bd9d-993443f6076e}, !- Handle
  {880fa09f-670b-427b-a5bc-089751f146b3}, !- Object Name
  ObjectType,                             !- Feature Name 1
  String,                                 !- Feature Data Type 1
  conditioned space;                      !- Feature Value 1

OS:Space,
  {945b638a-c3b6-4c2f-b0ea-10808c19185c}, !- Handle
  conditioned space 1,                    !- Name
  ,                                       !- Space Type Name
  ,                                       !- Default Construction Set Name
  ,                                       !- Default Schedule Set Name
  ,                                       !- Direction of Relative North {deg}
  ,                                       !- X Origin {m}
  ,                                       !- Y Origin {m}
  ,                                       !- Z Origin {m}
  ,                                       !- Building Story Name
  {880fa09f-670b-427b-a5bc-089751f146b3}, !- Thermal Zone Name
  ,                                       !- Part of Total Floor Area
  ,                                       !- Design Specification Outdoor Air Object Name
  ,                                       !- Building Unit Name
  692.06373070848;                        !- Volume {m3}

OS:Schedule:Ruleset,
  {ebd066e4-0bba-464d-b2ec-d6225f2946ea}, !- Handle
  heating setpoint,                       !- Name
  {2af32ca3-8188-49fd-90b1-bf620326d222}, !- Schedule Type Limits Name
  {614a7aa8-87bd-4f79-8882-a0c8e768514f}; !- Default Day Schedule Name

OS:Schedule:Day,
  {614a7aa8-87bd-4f79-8882-a0c8e768514f}, !- Handle
  heating setpoint default day,           !- Name
  {2af32ca3-8188-49fd-90b1-bf620326d222}, !- Schedule Type Limits Name
  ,                                       !- Interpolate to Timestep
  24,                                     !- Hour 1
  0,                                      !- Minute 1
  0;                                      !- Value Until Time 1

OS:Schedule:Rule,
  {ddf4eec9-00b3-45b9-a1cd-c7b0077e4cf6}, !- Handle
  heating setpoint allday rule,           !- Name
  {ebd066e4-0bba-464d-b2ec-d6225f2946ea}, !- Schedule Ruleset Name
  0,                                      !- Rule Order
  {6adb087c-4fab-4f9a-8fb9-1021b48cf387}, !- Day Schedule Name
  Yes,                                    !- Apply Sunday
  Yes,                                    !- Apply Monday
  Yes,                                    !- Apply Tuesday
  Yes,                                    !- Apply Wednesday
  Yes,                                    !- Apply Thursday
  Yes,                                    !- Apply Friday
  Yes,                                    !- Apply Saturday
  DateRange,                              !- Date Specification Type
  1,                                      !- Start Month
  1,                                      !- Start Day
  12,                                     !- End Month
  31;                                     !- End Day

OS:Schedule:Day,
  {6adb087c-4fab-4f9a-8fb9-1021b48cf387}, !- Handle
  heating setpoint day,                   !- Name
  {2af32ca3-8188-49fd-90b1-bf620326d222}, !- Schedule Type Limits Name
  ,                                       !- Interpolate to Timestep
  24,                                     !- Hour 1
  0,                                      !- Minute 1
  20;                                     !- Value Until Time 1

OS:Schedule:Ruleset,
  {2fe31c28-435f-4854-80aa-5f3531ccd8ef}, !- Handle
  cooling setpoint,                       !- Name
  {2af32ca3-8188-49fd-90b1-bf620326d222}, !- Schedule Type Limits Name
  {20f19240-e119-4033-a6d1-f6da857e05ca}; !- Default Day Schedule Name

OS:Schedule:Day,
  {20f19240-e119-4033-a6d1-f6da857e05ca}, !- Handle
  cooling setpoint default day,           !- Name
  {2af32ca3-8188-49fd-90b1-bf620326d222}, !- Schedule Type Limits Name
  ,                                       !- Interpolate to Timestep
  24,                                     !- Hour 1
  0,                                      !- Minute 1
  0;                                      !- Value Until Time 1

OS:Schedule:Rule,
  {cedaf1a4-e8dd-4bba-854e-930beb90b82a}, !- Handle
  cooling setpoint allday rule,           !- Name
  {2fe31c28-435f-4854-80aa-5f3531ccd8ef}, !- Schedule Ruleset Name
  0,                                      !- Rule Order
  {6b385d1a-a4b7-4d55-8ad7-9267e963e6a5}, !- Day Schedule Name
  Yes,                                    !- Apply Sunday
  Yes,                                    !- Apply Monday
  Yes,                                    !- Apply Tuesday
  Yes,                                    !- Apply Wednesday
  Yes,                                    !- Apply Thursday
  Yes,                                    !- Apply Friday
  Yes,                                    !- Apply Saturday
  DateRange,                              !- Date Specification Type
  1,                                      !- Start Month
  1,                                      !- Start Day
  12,                                     !- End Month
  31;                                     !- End Day

OS:Schedule:Day,
  {6b385d1a-a4b7-4d55-8ad7-9267e963e6a5}, !- Handle
  cooling setpoint day,                   !- Name
  {2af32ca3-8188-49fd-90b1-bf620326d222}, !- Schedule Type Limits Name
  ,                                       !- Interpolate to Timestep
  24,                                     !- Hour 1
  0,                                      !- Minute 1
  25.5555555555556;                       !- Value Until Time 1

OS:ThermostatSetpoint:DualSetpoint,
  {86410718-8e05-4c3b-967e-e8bf45c178f6}, !- Handle
  conditioned space temperature setpoint, !- Name
  {ebd066e4-0bba-464d-b2ec-d6225f2946ea}, !- Heating Setpoint Temperature Schedule Name
  {2fe31c28-435f-4854-80aa-5f3531ccd8ef}, !- Cooling Setpoint Temperature Schedule Name
  0;                                      !- Temperature Difference Between Cutout And Setpoint {deltaC}

OS:ScheduleTypeLimits,
  {2af32ca3-8188-49fd-90b1-bf620326d222}, !- Handle
  Temperature,                            !- Name
  ,                                       !- Lower Limit Value
  ,                                       !- Upper Limit Value
  Continuous,                             !- Numeric Type
  Temperature;                            !- Unit Type

OS:Surface,
  {a91771c2-d84e-49b1-b85d-ef0dde83c63c}, !- Handle
  Roof1,                                  !- Name
  RoofCeiling,                            !- Surface Type
  {96dba7fc-3ae3-447a-a2c4-a7c4346ced18}, !- Construction Name
  {f6506cdd-defb-46bc-ade3-d7cfd2d05fae}, !- Space Name
  Outdoors,                               !- Outside Boundary Condition
  ,                                       !- Outside Boundary Condition Object
  SunExposed,                             !- Sun Exposure
  WindExposed,                            !- Wind Exposure
  ,                                       !- View Factor to Ground
  ,                                       !- Number of Vertices
  -26.9347048849634, 58.0557891618865, 2.4384, !- X,Y,Z Vertex 1 {m}
  -26.9347048849634, 46.7895631136661, 8.0715130241102, !- X,Y,Z Vertex 2 {m}
  -14.3386812381136, 46.7895631136661, 8.0715130241102, !- X,Y,Z Vertex 3 {m}
  -14.3386812381136, 58.0557891618865, 2.4384; !- X,Y,Z Vertex 4 {m}

OS:AdditionalProperties,
  {13943784-b320-4546-8e77-735dafc29eeb}, !- Handle
  {a91771c2-d84e-49b1-b85d-ef0dde83c63c}, !- Object Name
  Length,                                 !- Feature Name 1
  Double,                                 !- Feature Data Type 1
  41.325536899113608,                     !- Feature Value 1
  Width,                                  !- Feature Name 2
  Double,                                 !- Feature Data Type 2
  41.325536899113601,                     !- Feature Value 2
  Azimuth,                                !- Feature Name 3
  Integer,                                !- Feature Data Type 3
  0,                                      !- Feature Value 3
  Tilt,                                   !- Feature Name 4
  Double,                                 !- Feature Data Type 4
  0.5,                                    !- Feature Value 4
  SurfaceType,                            !- Feature Name 5
  String,                                 !- Feature Data Type 5
  Roof;                                   !- Feature Value 5

OS:ThermalZone,
  {15cf8dcb-55bf-483c-bdc7-2d8d921f3c4d}, !- Handle
  attic - vented,                         !- Name
  1,                                      !- Multiplier
  ,                                       !- Ceiling Height {m}
  356.389957095237,                       !- Volume {m3}
  ,                                       !- Floor Area {m2}
  ,                                       !- Zone Inside Convection Algorithm
  ,                                       !- Zone Outside Convection Algorithm
  ,                                       !- Zone Conditioning Equipment List Name
  {c29b7e94-240b-41a4-b76d-436b694f5bc5}, !- Zone Air Inlet Port List
  {0a962095-1d83-4ae7-8db0-3f2f23744df0}, !- Zone Air Exhaust Port List
  {6ecc45d7-a7a9-4af6-8e8f-fd6ce11a5874}, !- Zone Air Node Name
  {0ce426c7-14fd-4ec4-9397-36d049a2e537}, !- Zone Return Air Port List
  ,                                       !- Primary Daylighting Control Name
  ,                                       !- Fraction of Zone Controlled by Primary Daylighting Control
  ,                                       !- Secondary Daylighting Control Name
  ,                                       !- Fraction of Zone Controlled by Secondary Daylighting Control
  ,                                       !- Illuminance Map Name
  ,                                       !- Group Rendering Name
  ,                                       !- Thermostat Name
  No;                                     !- Use Ideal Air Loads

OS:Node,
  {85ab82ad-1a27-4421-a6ea-5f7492740c6c}, !- Handle
  Node 2,                                 !- Name
  {6ecc45d7-a7a9-4af6-8e8f-fd6ce11a5874}, !- Inlet Port
  ;                                       !- Outlet Port

OS:Connection,
  {6ecc45d7-a7a9-4af6-8e8f-fd6ce11a5874}, !- Handle
  {15cf8dcb-55bf-483c-bdc7-2d8d921f3c4d}, !- Source Object
  11,                                     !- Outlet Port
  {85ab82ad-1a27-4421-a6ea-5f7492740c6c}, !- Target Object
  2;                                      !- Inlet Port

OS:PortList,
  {c29b7e94-240b-41a4-b76d-436b694f5bc5}, !- Handle
  {15cf8dcb-55bf-483c-bdc7-2d8d921f3c4d}; !- HVAC Component

OS:PortList,
  {0a962095-1d83-4ae7-8db0-3f2f23744df0}, !- Handle
  {15cf8dcb-55bf-483c-bdc7-2d8d921f3c4d}; !- HVAC Component

OS:PortList,
  {0ce426c7-14fd-4ec4-9397-36d049a2e537}, !- Handle
  {15cf8dcb-55bf-483c-bdc7-2d8d921f3c4d}; !- HVAC Component

OS:Sizing:Zone,
  {9108c9f5-79a8-4b33-a001-2b4d5589266c}, !- Handle
  {15cf8dcb-55bf-483c-bdc7-2d8d921f3c4d}, !- Zone or ZoneList Name
  SupplyAirTemperature,                   !- Zone Cooling Design Supply Air Temperature Input Method
  14,                                     !- Zone Cooling Design Supply Air Temperature {C}
  11.11,                                  !- Zone Cooling Design Supply Air Temperature Difference {deltaC}
  SupplyAirTemperature,                   !- Zone Heating Design Supply Air Temperature Input Method
  40,                                     !- Zone Heating Design Supply Air Temperature {C}
  11.11,                                  !- Zone Heating Design Supply Air Temperature Difference {deltaC}
  0.0085,                                 !- Zone Cooling Design Supply Air Humidity Ratio {kg-H2O/kg-air}
  0.008,                                  !- Zone Heating Design Supply Air Humidity Ratio {kg-H2O/kg-air}
  ,                                       !- Zone Heating Sizing Factor
  ,                                       !- Zone Cooling Sizing Factor
  DesignDay,                              !- Cooling Design Air Flow Method
  ,                                       !- Cooling Design Air Flow Rate {m3/s}
  ,                                       !- Cooling Minimum Air Flow per Zone Floor Area {m3/s-m2}
  ,                                       !- Cooling Minimum Air Flow {m3/s}
  ,                                       !- Cooling Minimum Air Flow Fraction
  DesignDay,                              !- Heating Design Air Flow Method
  ,                                       !- Heating Design Air Flow Rate {m3/s}
  ,                                       !- Heating Maximum Air Flow per Zone Floor Area {m3/s-m2}
  ,                                       !- Heating Maximum Air Flow {m3/s}
  ,                                       !- Heating Maximum Air Flow Fraction
  No,                                     !- Account for Dedicated Outdoor Air System
  NeutralSupplyAir,                       !- Dedicated Outdoor Air System Control Strategy
  autosize,                               !- Dedicated Outdoor Air Low Setpoint Temperature for Design {C}
  autosize,                               !- Dedicated Outdoor Air High Setpoint Temperature for Design {C}
  Sensible Load Only No Latent Load,      !- Zone Load Sizing Method
  HumidityRatioDifference,                !- Zone Latent Cooling Design Supply Air Humidity Ratio Input Method
  ,                                       !- Zone Dehumidification Design Supply Air Humidity Ratio {kgWater/kgDryAir}
  0.005,                                  !- Zone Cooling Design Supply Air Humidity Ratio Difference {kgWater/kgDryAir}
  HumidityRatioDifference,                !- Zone Latent Heating Design Supply Air Humidity Ratio Input Method
  ,                                       !- Zone Humidification Design Supply Air Humidity Ratio {kgWater/kgDryAir}
  0.005,                                  !- Zone Humidification Design Supply Air Humidity Ratio Difference {kgWater/kgDryAir}
  ,                                       !- Zone Humidistat Dehumidification Set Point Schedule Name
  ,                                       !- Zone Humidistat Humidification Set Point Schedule Name
  ,                                       !- Design Zone Air Distribution Effectiveness in Cooling Mode
  ,                                       !- Design Zone Air Distribution Effectiveness in Heating Mode
  ,                                       !- Design Zone Secondary Recirculation Fraction {dimensionless}
  ,                                       !- Design Minimum Zone Ventilation Efficiency {dimensionless}
  Coincident;                             !- Sizing Option

OS:ZoneHVAC:EquipmentList,
  {bce092c7-0558-488c-ab1b-40682004e969}, !- Handle
  Zone HVAC Equipment List 2,             !- Name
  {15cf8dcb-55bf-483c-bdc7-2d8d921f3c4d}; !- Thermal Zone

OS:AdditionalProperties,
  {47a207dc-6ab5-4df3-9477-2001378e51c2}, !- Handle
  {15cf8dcb-55bf-483c-bdc7-2d8d921f3c4d}, !- Object Name
  ObjectType,                             !- Feature Name 1
  String,                                 !- Feature Data Type 1
  attic - vented;                         !- Feature Value 1

OS:Space,
  {f6506cdd-defb-46bc-ade3-d7cfd2d05fae}, !- Handle
  attic - vented 1,                       !- Name
  ,                                       !- Space Type Name
  ,                                       !- Default Construction Set Name
  ,                                       !- Default Schedule Set Name
  ,                                       !- Direction of Relative North {deg}
  ,                                       !- X Origin {m}
  ,                                       !- Y Origin {m}
  ,                                       !- Z Origin {m}
  ,                                       !- Building Story Name
  {15cf8dcb-55bf-483c-bdc7-2d8d921f3c4d}, !- Thermal Zone Name
  ,                                       !- Part of Total Floor Area
  ,                                       !- Design Specification Outdoor Air Object Name
  ,                                       !- Building Unit Name
  356.389957095237;                       !- Volume {m3}

OS:Material,
  {bbdcb346-f06e-4ec3-92dd-a140789b0a75}, !- Handle
  asphalt or fiberglass shingles,         !- Name