
OS:Version,
  {268e02aa-4abb-4829-953c-6adca0c39d24}, !- Handle
  3.10.0;                                 !- Version Identifier

OS:SimulationControl,
  {b26f80a0-f810-4b3c-914a-094fdeae5bc3}, !- Handle
  ,                                       !- Do Zone Sizing Calculation
  ,                                       !- Do System Sizing Calculation
  ,                                       !- Do Plant Sizing Calculation
  No;                                     !- Run Simulation for Sizing Periods

OS:Timestep,
  {71985347-414d-483e-9afa-1b29eca20fc9}, !- Handle
  1;                                      !- Number of Timesteps per Hour

OS:ShadowCalculation,
  {8a5ca3bf-8120-4c77-8c5b-81c79a0ed67c}, !- Handle
  PolygonClipping,                        !- Shading Calculation Method
  ,                                       !- Shading Calculation Update Frequency Method
  20,                                     !- Shading Calculation Update Frequency
  200,                                    !- Maximum Figures in Shadow Overlap Calculations
  ,                                       !- Polygon Clipping Algorithm
  512,                                    !- Pixel Counting Resolution
  ,                                       !- Sky Diffuse Modeling Algorithm
  No,                                     !- Output External Shading Calculation Results
  No,                                     !- Disable Self-Shading Within Shading Zone Groups
  No;                                     !- Disable Self-Shading From Shading Zone Groups to Other Zones

OS:SurfaceConvectionAlgorithm:Outside,
  {8a683b8d-e89a-4e22-92e1-4b5b58dd922e}, !- Handle
  DOE-2;                                  !- Algorithm

OS:SurfaceConvectionAlgorithm:Inside,
  {42afd1f8-cc83-42eb-9022-6c16b6be171a}, !- Handle
  TARP;                                   !- Algorithm

OS:ZoneCapacitanceMultiplier:ResearchSpecial,
  {d192f3d7-a83a-4b3f-ab12-0ab4fd73aa26}, !- Handle
  7,                                      !- Temperature Capacity Multiplier
  15,                                     !- Humidity Capacity Multiplier
  ;                                       !- Carbon Dioxide Capacity Multiplier

OS:ConvergenceLimits,
  {574b4014-3d09-41fc-8960-af8dc957d1b2}, !- Handle
  0;                                      !- Minimum System Timestep {minutes}

OS:RunPeriod,
  {4e49eda8-6f08-4abf-ad3f-66fa22de2258}, !- Handle
  Run Period 1,                           !- Name
  1,                                      !- Begin Month
  1,                                      !- Begin Day of Month
  12,                                     !- End Month
  31,                                     !- End Day of Month
  ,                                       !- Use Weather File Holidays and Special Days
  ,                                       !- Use Weather File Daylight Saving Period
  ,                                       !- Apply Weekend Holiday Rule
  ,                                       !- Use Weather File Rain Indicators
  ,                                       !- Use Weather File Snow Indicators
  ;                                       !- Number of Times Runperiod to be Repeated

OS:PerformancePrecisionTradeoffs,
  {42f7a6cb-057f-4469-ae4c-2eaf26f84906}, !- Handle
  ,                                       !- Use Coil Direct Solutions
  CarrollMRT;                             !- Zone Radiant Exchange Algorithm

OS:WeatherFile,
  {e8c7f271-2102-4a78-a96e-47906fa4e4f1}, !- Handle
  Buffalo Niagara Intl Ap,                !- City
  NY,                                     !- State Province Region
  USA,                                    !- Country
  TMY3,                                   !- Data Source
  725280,                                 !- WMO Number
  42.93,                                  !- Latitude {deg}
  -78.73,                                 !- Longitude {deg}
  -5,                                     !- Time Zone {hr}
  215,                                    !- Elevation {m}
  /Users/nmoore/github/urbanopt-example-geojson-project/example_project/weather/USA_NY_Buffalo-Greater.Buffalo.Intl.AP.725280_TMY3.epw, !- Url
  6B50E0FF,                               !- Checksum
  ,                                       !- Start Date Actual Year
  Sunday;                                 !- Start Day of Week

OS:YearDescription,
  {cae1c5e2-f203-41a6-89d5-4ddf4b95c0c4}, !- Handle
  2007,                                   !- Calendar Year
  ,                                       !- Day of Week for Start Day
  ;                                       !- Is Leap Year

OS:Site,
  {ea8c7a13-b5f4-473e-ac84-26f7e0ee1417}, !- Handle
  Buffalo Niagara Intl Ap_NY,             !- Name
  42.93,                                  !- Latitude {deg}
  -78.73,                                 !- Longitude {deg}
  -5,                                     !- Time Zone {hr}
  215,                                    !- Elevation {m}
  Suburbs,                                !- Terrain
  Yes;                                    !- Keep Site Location Information

OS:RunPeriodControl:DaylightSavingTime,
  {386bc886-9532-4444-a822-c51c28da23d9}, !- Handle
  Mar 12,                                 !- Start Date
  Nov 5;                                  !- End Date

OS:Site:GroundTemperature:Shallow,
  {41ab16dc-ba80-4b2b-b530-c67939c926e7}, !- Handle
  4.30207395723828,                       !- January Surface Ground Temperature {C}
  2.29327249652502,                       !- February Surface Ground Temperature {C}
  2.13240047156047,                       !- March Surface Ground Temperature {C}
  3.08567940719286,                       !- April Surface Ground Temperature {C}
  6.91256312497526,                       !- May Surface Ground Temperature {C}
  10.7216195949507,                       !- June Surface Ground Temperature {C}
  14.0238679822574,                       !- July Surface Ground Temperature {C}
  16.1157611184724,                       !- August Surface Ground Temperature {C}
  16.2934789303462,                       !- September Surface Ground Temperature {C}
  14.5920754632847,                       !- October Surface Ground Temperature {C}
  11.374036348653,                        !- November Surface Ground Temperature {C}
  7.68182621661674;                       !- December Surface Ground Temperature {C}

OS:ThermalZone,
  {8b8bf8ef-4565-4190-9dd4-925f298f27a1}, !- Handle
  conditioned space,                      !- Name
  1,                                      !- Multiplier
  ,                                       !- Ceiling Height {m}
  692.06373070848,                        !- Volume {m3}
  ,                                       !- Floor Area {m2}
  ,                                       !- Zone Inside Convection Algorithm
  ,                                       !- Zone Outside Convection Algorithm
  ,                                       !- Zone Conditioning Equipment List Name
  {04ad0155-327d-4abc-85ae-699b85ed2679}, !- Zone Air Inlet Port List
  {32cd9dc7-2931-4739-a29e-46915ff4bc5c}, !- Zone Air Exhaust Port List
  {3bdfb861-25d8-4100-b196-9010f2c59c34}, !- Zone Air Node Name
  {ff4cc913-1708-4f4e-b89f-6093c1137f71}, !- Zone Return Air Port List
  ,                                       !- Primary Daylighting Control Name
  ,                                       !- Fraction of Zone Controlled by Primary Daylighting Control
  ,                                       !- Secondary Daylighting Control Name
  ,                                       !- Fraction of Zone Controlled by Secondary Daylighting Control
  ,                                       !- Illuminance Map Name
  ,                                       !- Group Rendering Name
  {0eb77225-3aea-4755-b449-878623157c33}, !- Thermostat Name
  No;                                     !- Use Ideal Air Loads

OS:Node,
  {cb100fad-1d0a-47de-b2fc-c9f3ff728c5d}, !- Handle
  Node 1,                                 !- Name
  {3bdfb861-25d8-4100-b196-9010f2c59c34}, !- Inlet Port
  ;                                       !- Outlet Port

OS:Connection,
  {3bdfb861-25d8-4100-b196-9010f2c59c34}, !- Handle
  {8b8bf8ef-4565-4190-9dd4-925f298f27a1}, !- Source Object
  11,                                     !- Outlet Port
  {cb100fad-1d0a-47de-b2fc-c9f3ff728c5d}, !- Target Object
  2;                                      !- Inlet Port

OS:PortList,
  {04ad0155-327d-4abc-85ae-699b85ed2679}, !- Handle
  {8b8bf8ef-4565-4190-9dd4-925f298f27a1}, !- HVAC Component
  {9fabc6f0-c8cc-4820-bf5e-ff88dde07b89}; !- Port 1

OS:PortList,
  {32cd9dc7-2931-4739-a29e-46915ff4bc5c}, !- Handle
  {8b8bf8ef-4565-4190-9dd4-925f298f27a1}; !- HVAC Component

OS:PortList,
  {ff4cc913-1708-4f4e-b89f-6093c1137f71}, !- Handle
  {8b8bf8ef-4565-4190-9dd4-925f298f27a1}, !- HVAC Component
  {2e191088-89dc-48a0-a379-49d627750ff3}; !- Port 1

OS:Sizing:Zone,
  {ba8f9e4a-a4bb-4eee-9b79-d3eff2a217f9}, !- Handle
  {8b8bf8ef-4565-4190-9dd4-925f298f27a1}, !- Zone or ZoneList Name
  SupplyAirTemperature,                   !- Zone Cooling Design Supply Air Temperature Input Method
  14,                                     !- Zone Cooling Design Supply Air Temperature {C}
  11.11,                                  !- Zone Cooling Design Supply Air Temperature Difference {deltaC}
  SupplyAirTemperature,                   !- Zone Heating Design Supply Air Temperature Input Method
  40,                                     !- Zone Heating Design Supply Air Temperature {C}
  11.11,                                  !- Zone Heating Design Supply Air Temperature Difference {deltaC}
  0.0085,                                 !- Zone Cooling Design Supply Air Humidity Ratio {kg-H2O/kg-air}
  0.008,                                  !- Zone Heating Design Supply Air Humidity Ratio {kg-H2O/kg-air}
  ,                                       !- Zone Heating Sizing Factor
  ,                                       !- Zone Cooling Sizing Factor
  DesignDay,                              !- Cooling Design Air Flow Method
  ,                                       !- Cooling Design Air Flow Rate {m3/s}
  ,                                       !- Cooling Minimum Air Flow per Zone Floor Area {m3/s-m2}
  ,                                       !- Cooling Minimum Air Flow {m3/s}
  ,                                       !- Cooling Minimum Air Flow Fraction
  DesignDay,                              !- Heating Design Air Flow Method
  ,                                       !- Heating Design Air Flow Rate {m3/s}
  ,                                       !- Heating Maximum Air Flow per Zone Floor Area {m3/s-m2}
  ,                                       !- Heating Maximum Air Flow {m3/s}
  ,                                       !- Heating Maximum Air Flow Fraction
  No,                                     !- Account for Dedicated Outdoor Air System
  NeutralSupplyAir,                       !- Dedicated Outdoor Air System Control Strategy
  autosize,                               !- Dedicated Outdoor Air Low Setpoint Temperature for Design {C}
  autosize,                               !- Dedicated Outdoor Air High Setpoint Temperature for Design {C}
  Sensible Load Only No Latent Load,      !- Zone Load Sizing Method
  HumidityRatioDifference,                !- Zone Latent Cooling Design Supply Air Humidity Ratio Input Method
  ,                                       !- Zone Dehumidification Design Supply Air Humidity Ratio {kgWater/kgDryAir}
  0.005,                                  !- Zone Cooling Design Supply Air Humidity Ratio Difference {kgWater/kgDryAir}
  HumidityRatioDifference,                !- Zone Latent Heating Design Supply Air Humidity Ratio Input Method
  ,                                       !- Zone Humidification Design Supply Air Humidity Ratio {kgWater/kgDryAir}
  0.005,                                  !- Zone Humidification Design Supply Air Humidity Ratio Difference {kgWater/kgDryAir}
  ,                                       !- Zone Humidistat Dehumidification Set Point Schedule Name
  ,                                       !- Zone Humidistat Humidification Set Point Schedule Name
  ,                                       !- Design Zone Air Distribution Effectiveness in Cooling Mode
  ,                                       !- Design Zone Air Distribution Effectiveness in Heating Mode
  ,                                       !- Design Zone Secondary Recirculation Fraction {dimensionless}
  ,                                       !- Design Minimum Zone Ventilation Efficiency {dimensionless}
  Coincident;                             !- Sizing Option

OS:ZoneHVAC:EquipmentList,
  {422c95a2-9400-448b-b009-c7890f0ea402}, !- Handle
  Zone HVAC Equipment List 1,             !- Name
  {8b8bf8ef-4565-4190-9dd4-925f298f27a1}, !- Thermal Zone
  ,                                       !- Load Distribution Scheme
  {6e11f03d-b643-4888-bba3-c169c83e1320}, !- Zone Equipment 1
  1,                                      !- Zone Equipment Cooling Sequence 1
  1,                                      !- Zone Equipment Heating or No-Load Sequence 1
  {ca414c90-728a-4806-98a1-2d7c2fa6ea62}, !- Zone Equipment Sequential Cooling Fraction Schedule Name 1
  {580629d5-8513-4ca1-b0d0-82684edd4e1d}, !- Zone Equipment Sequential Heating Fraction Schedule Name 1
  {92e32e5f-eb84-46d6-a9f0-c03d199b4370}, !- Zone Equipment 2
  2,                                      !- Zone Equipment Cooling Sequence 2
  2,                                      !- Zone Equipment Heating or No-Load Sequence 2
  {ced3f8f5-90d2-48e2-89b8-8c49f2afac9b}, !- Zone Equipment Sequential Cooling Fraction Schedule Name 2
  {355756f4-ab9a-4e41-bb9c-8eedc413ddc9}; !- Zone Equipment Sequential Heating Fraction Schedule Name 2

OS:AdditionalProperties,
  {dd287429-4831-4ef4-a4dc-f4621e405873}, !- Handle
  {8b8bf8ef-4565-4190-9dd4-925f298f27a1}, !- Object Name
  ObjectType,                             !- Feature Name 1
  String,                                 !- Feature Data Type 1
  conditioned space;                      !- Feature Value 1

OS:Space,
  {a8e5363a-c43d-4cef-befe-5d29c89a6795}, !- Handle
  conditioned space 1,                    !- Name
  ,                                       !- Space Type Name
  ,                                       !- Default Construction Set Name
  ,                                       !- Default Schedule Set Name
  ,                                       !- Direction of Relative North {deg}
  ,                                       !- X Origin {m}
  ,                                       !- Y Origin {m}
  ,                                       !- Z Origin {m}
  ,                                       !- Building Story Name
  {8b8bf8ef-4565-4190-9dd4-925f298f27a1}, !- Thermal Zone Name
  ,                                       !- Part of Total Floor Area
  ,                                       !- Design Specification Outdoor Air Object Name
  ,                                       !- Building Unit Name
  692.06373070848;                        !- Volume {m3}

OS:Schedule:Ruleset,
  {297f8157-3916-446e-b127-2fd4b14b4542}, !- Handle
  heating setpoint,                       !- Name
  {34a6895b-f29d-4ed4-8ccb-4bf35b97a1b0}, !- Schedule Type Limits Name
  {5bd2f71f-fb4a-4043-94a9-8788e7f3048f}; !- Default Day Schedule Name

OS:Schedule:Day,
  {5bd2f71f-fb4a-4043-94a9-8788e7f3048f}, !- Handle
  heating setpoint default day,           !- Name
  {34a6895b-f29d-4ed4-8ccb-4bf35b97a1b0}, !- Schedule Type Limits Name
  ,                                       !- Interpolate to Timestep
  24,                                     !- Hour 1
  0,                                      !- Minute 1
  0;                                      !- Value Until Time 1

OS:Schedule:Rule,
  {55bce746-e245-4bdd-aa01-17bfeff5ecd8}, !- Handle
  heating setpoint allday rule,           !- Name
  {297f8157-3916-446e-b127-2fd4b14b4542}, !- Schedule Ruleset Name
  0,                                      !- Rule Order
  {cd3874fd-48c7-48f8-9f01-abfbed4f4567}, !- Day Schedule Name
  Yes,                                    !- Apply Sunday
  Yes,                                    !- Apply Monday
  Yes,                                    !- Apply Tuesday
  Yes,                                    !- Apply Wednesday
  Yes,                                    !- Apply Thursday
  Yes,                                    !- Apply Friday
  Yes,                                    !- Apply Saturday
  DateRange,                              !- Date Specification Type
  1,                                      !- Start Month
  1,                                      !- Start Day
  12,                                     !- End Month
  31;                                     !- End Day

OS:Schedule:Day,
  {cd3874fd-48c7-48f8-9f01-abfbed4f4567}, !- Handle
  heating setpoint day,                   !- Name
  {34a6895b-f29d-4ed4-8ccb-4bf35b97a1b0}, !- Schedule Type Limits Name
  ,                                       !- Interpolate to Timestep
  24,                                     !- Hour 1
  0,                                      !- Minute 1
  20;                                     !- Value Until Time 1

OS:Schedule:Ruleset,
  {cc0f4ebc-e0ff-4998-bdaa-98ee805a3967}, !- Handle
  cooling setpoint,                       !- Name
  {34a6895b-f29d-4ed4-8ccb-4bf35b97a1b0}, !- Schedule Type Limits Name
  {e7520baa-e3ce-407b-8340-441143227da4}; !- Default Day Schedule Name

OS:Schedule:Day,
  {e7520baa-e3ce-407b-8340-441143227da4}, !- Handle
  cooling setpoint default day,           !- Name
  {34a6895b-f29d-4ed4-8ccb-4bf35b97a1b0}, !- Schedule Type Limits Name
  ,                                       !- Interpolate to Timestep
  24,                                     !- Hour 1
  0,                                      !- Minute 1
  0;                                      !- Value Until Time 1

OS:Schedule:Rule,
  {3ac0b2f9-228e-44ab-838b-99e6f1a935a8}, !- Handle
  cooling setpoint allday rule,           !- Name
  {cc0f4ebc-e0ff-4998-bdaa-98ee805a3967}, !- Schedule Ruleset Name
  0,                                      !- Rule Order
  {b2f8d7be-337b-453a-8bbb-56f40fc3d5a2}, !- Day Schedule Name
  Yes,                                    !- Apply Sunday
  Yes,                                    !- Apply Monday
  Yes,                                    !- Apply Tuesday
  Yes,                                    !- Apply Wednesday
  Yes,                                    !- Apply Thursday
  Yes,                                    !- Apply Friday
  Yes,                                    !- Apply Saturday
  DateRange,                              !- Date Specification Type
  1,                                      !- Start Month
  1,                                      !- Start Day
  12,                                     !- End Month
  31;                                     !- End Day

OS:Schedule:Day,
  {b2f8d7be-337b-453a-8bbb-56f40fc3d5a2}, !- Handle
  cooling setpoint day,                   !- Name
  {34a6895b-f29d-4ed4-8ccb-4bf35b97a1b0}, !- Schedule Type Limits Name
  ,                                       !- Interpolate to Timestep
  24,                                     !- Hour 1
  0,                                      !- Minute 1
  25.5555555555556;                       !- Value Until Time 1

OS:ThermostatSetpoint:DualSetpoint,
  {0eb77225-3aea-4755-b449-878623157c33}, !- Handle
  conditioned space temperature setpoint, !- Name
  {297f8157-3916-446e-b127-2fd4b14b4542}, !- Heating Setpoint Temperature Schedule Name
  {cc0f4ebc-e0ff-4998-bdaa-98ee805a3967}, !- Cooling Setpoint Temperature Schedule Name
  0;                                      !- Temperature Difference Between Cutout And Setpoint {deltaC}

OS:ScheduleTypeLimits,
  {34a6895b-f29d-4ed4-8ccb-4bf35b97a1b0}, !- Handle
  Temperature,                            !- Name
  ,                                       !- Lower Limit Value
  ,                                       !- Upper Limit Value
  Continuous,                             !- Numeric Type
  Temperature;                            !- Unit Type

OS:Surface,
  {f6a464e1-4d59-4328-a0e9-6c39a5541c8f}, !- Handle
  Roof1,                                  !- Name
  RoofCeiling,                            !- Surface Type
  {2c635c70-970e-4cfb-9814-634a376ef497}, !- Construction Name
  {97678f66-cf5a-432c-a14c-026efd436fbb}, !- Space Name
  Outdoors,                               !- Outside Boundary Condition
  ,                                       !- Outside Boundary Condition Object
  SunExposed,                             !- Sun Exposure
  WindExposed,                            !- Wind Exposure
  ,                                       !- View Factor to Ground
  ,                                       !- Number of Vertices
  -26.9347048849634, 58.0557891618865, 2.4384, !- X,Y,Z Vertex 1 {m}
  -26.9347048849634, 46.7895631136661, 8.0715130241102, !- X,Y,Z Vertex 2 {m}
  -14.3386812381136, 46.7895631136661, 8.0715130241102, !- X,Y,Z Vertex 3 {m}
  -14.3386812381136, 58.0557891618865, 2.4384; !- X,Y,Z Vertex 4 {m}

OS:AdditionalProperties,
  {908f8ff9-5eb3-41bf-9f43-1c76e3935f70}, !- Handle
  {f6a464e1-4d59-4328-a0e9-6c39a5541c8f}, !- Object Name
  Length,                                 !- Feature Name 1
  Double,                                 !- Feature Data Type 1
  41.325536899113608,                     !- Feature Value 1
  Width,                                  !- Feature Name 2
  Double,                                 !- Feature Data Type 2
  41.325536899113601,                     !- Feature Value 2
  Azimuth,                                !- Feature Name 3
  Integer,                                !- Feature Data Type 3
  0,                                      !- Feature Value 3
  Tilt,                                   !- Feature Name 4
  Double,                                 !- Feature Data Type 4
  0.5,                                    !- Feature Value 4
  SurfaceType,                            !- Feature Name 5
  String,                                 !- Feature Data Type 5
  Roof;                                   !- Feature Value 5

OS:ThermalZone,
  {3c74612d-21be-4c04-9958-39dad87cfe14}, !- Handle
  attic - vented,                         !- Name
  1,                                      !- Multiplier
  ,                                       !- Ceiling Height {m}
  356.390921899745,                       !- Volume {m3}
  ,                                       !- Floor Area {m2}
  ,                                       !- Zone Inside Convection Algorithm
  ,                                       !- Zone Outside Convection Algorithm
  ,                                       !- Zone Conditioning Equipment List Name
  {28595b6a-0b15-4743-8d67-0680c0521cb2}, !- Zone Air Inlet Port List
  {8b6c87a4-5fad-4bda-89e7-99762a8003cf}, !- Zone Air Exhaust Port List
  {54d45545-1d2b-4471-98f8-188f3cf33085}, !- Zone Air Node Name
  {5f411e25-4645-49d7-9f50-fea76274fd85}, !- Zone Return Air Port List
  ,                                       !- Primary Daylighting Control Name
  ,                                       !- Fraction of Zone Controlled by Primary Daylighting Control
  ,                                       !- Secondary Daylighting Control Name
  ,                                       !- Fraction of Zone Controlled by Secondary Daylighting Control
  ,                                       !- Illuminance Map Name
  ,                                       !- Group Rendering Name
  ,                                       !- Thermostat Name
  No;                                     !- Use Ideal Air Loads

OS:Node,
  {86afc503-555e-4b0a-ab19-1bdfebce7e6c}, !- Handle
  Node 2,                                 !- Name
  {54d45545-1d2b-4471-98f8-188f3cf33085}, !- Inlet Port
  ;                                       !- Outlet Port

OS:Connection,
  {54d45545-1d2b-4471-98f8-188f3cf33085}, !- Handle
  {3c74612d-21be-4c04-9958-39dad87cfe14}, !- Source Object
  11,                                     !- Outlet Port
  {86afc503-555e-4b0a-ab19-1bdfebce7e6c}, !- Target Object
  2;                                      !- Inlet Port

OS:PortList,
  {28595b6a-0b15-4743-8d67-0680c0521cb2}, !- Handle
  {3c74612d-21be-4c04-9958-39dad87cfe14}; !- HVAC Component

OS:PortList,
  {8b6c87a4-5fad-4bda-89e7-99762a8003cf}, !- Handle
  {3c74612d-21be-4c04-9958-39dad87cfe14}; !- HVAC Component

OS:PortList,
  {5f411e25-4645-49d7-9f50-fea76274fd85}, !- Handle
  {3c74612d-21be-4c04-9958-39dad87cfe14}; !- HVAC Component

OS:Sizing:Zone,
  {14bad1e4-9751-4926-8b68-76ae108acaef}, !- Handle
  {3c74612d-21be-4c04-9958-39dad87cfe14}, !- Zone or ZoneList Name
  SupplyAirTemperature,                   !- Zone Cooling Design Supply Air Temperature Input Method
  14,                                     !- Zone Cooling Design Supply Air Temperature {C}
  11.11,                                  !- Zone Cooling Design Supply Air Temperature Difference {deltaC}
  SupplyAirTemperature,                   !- Zone Heating Design Supply Air Temperature Input Method
  40,                                     !- Zone Heating Design Supply Air Temperature {C}
  11.11,                                  !- Zone Heating Design Supply Air Temperature Difference {deltaC}
  0.0085,                                 !- Zone Cooling Design Supply Air Humidity Ratio {kg-H2O/kg-air}
  0.008,                                  !- Zone Heating Design Supply Air Humidity Ratio {kg-H2O/kg-air}
  ,                                       !- Zone Heating Sizing Factor
  ,                                       !- Zone Cooling Sizing Factor
  DesignDay,                              !- Cooling Design Air Flow Method
  ,                                       !- Cooling Design Air Flow Rate {m3/s}
  ,                                       !- Cooling Minimum Air Flow per Zone Floor Area {m3/s-m2}
  ,                                       !- Cooling Minimum Air Flow {m3/s}
  ,                                       !- Cooling Minimum Air Flow Fraction
  DesignDay,                              !- Heating Design Air Flow Method
  ,                                       !- Heating Design Air Flow Rate {m3/s}
  ,                                       !- Heating Maximum Air Flow per Zone Floor Area {m3/s-m2}
  ,                                       !- Heating Maximum Air Flow {m3/s}
  ,                                       !- Heating Maximum Air Flow Fraction
  No,                                     !- Account for Dedicated Outdoor Air System
  NeutralSupplyAir,                       !- Dedicated Outdoor Air System Control Strategy
  autosize,                               !- Dedicated Outdoor Air Low Setpoint Temperature for Design {C}
  autosize,                               !- Dedicated Outdoor Air High Setpoint Temperature for Design {C}
  Sensible Load Only No Latent Load,      !- Zone Load Sizing Method
  HumidityRatioDifference,                !- Zone Latent Cooling Design Supply Air Humidity Ratio Input Method
  ,                                       !- Zone Dehumidification Design Supply Air Humidity Ratio {kgWater/kgDryAir}
  0.005,                                  !- Zone Cooling Design Supply Air Humidity Ratio Difference {kgWater/kgDryAir}
  HumidityRatioDifference,                !- Zone Latent Heating Design Supply Air Humidity Ratio Input Method
  ,                                       !- Zone Humidification Design Supply Air Humidity Ratio {kgWater/kgDryAir}
  0.005,                                  !- Zone Humidification Design Supply Air Humidity Ratio Difference {kgWater/kgDryAir}
  ,                                       !- Zone Humidistat Dehumidification Set Point Schedule Name
  ,                                       !- Zone Humidistat Humidification Set Point Schedule Name
  ,                                       !- Design Zone Air Distribution Effectiveness in Cooling Mode
  ,                                       !- Design Zone Air Distribution Effectiveness in Heating Mode
  ,                                       !- Design Zone Secondary Recirculation Fraction {dimensionless}
  ,                                       !- Design Minimum Zone Ventilation Efficiency {dimensionless}
  Coincident;                             !- Sizing Option

OS:ZoneHVAC:EquipmentList,
  {198e3a46-30a8-42cd-8728-e8d86575b89f}, !- Handle
  Zone HVAC Equipment List 2,             !- Name
  {3c74612d-21be-4c04-9958-39dad87cfe14}; !- Thermal Zone

OS:AdditionalProperties,
  {848b5977-9ed6-4540-8f59-5c3a06ac5a78}, !- Handle
  {3c74612d-21be-4c04-9958-39dad87cfe14}, !- Object Name
  ObjectType,                             !- Feature Name 1
  String,                                 !- Feature Data Type 1
  attic - vented;                         !- Feature Value 1

OS:Space,
  {97678f66-cf5a-432c-a14c-026efd436fbb}, !- Handle
  attic - vented 1,                       !- Name
  ,                                       !- Space Type Name
  ,                                       !- Default Construction Set Name
  ,                                       !- Default Schedule Set Name
  ,                                       !- Direction of Relative North {deg}
  ,                                       !- X Origin {m}
  ,                                       !- Y Origin {m}
  ,                                       !- Z Origin {m}
  ,                                       !- Building Story Name
  {3c74612d-21be-4c04-9958-39dad87cfe14}, !- Thermal Zone Name
  ,                                       !- Part of Total Floor Area
  ,                                       !- Design Specification Outdoor Air Object Name
  ,                                       !- Building Unit Name
  356.390921899745;                       !- Volume {m3}

OS:Material,
  {5037e48b-a149-45df-bce3-fb5d053d5e50}, !- Handle
  asphalt or fiberglass shingles,         !- Name