
OS:Version,
  {1dc6383f-5a81-404f-b54e-0a2cd761a574}, !- Handle
  3.10.0;                                 !- Version Identifier

OS:SimulationControl,
  {d19e02f1-6418-406d-a686-4ad0d708935b}, !- Handle
  ,                                       !- Do Zone Sizing Calculation
  ,                                       !- Do System Sizing Calculation
  ,                                       !- Do Plant Sizing Calculation
  No;                                     !- Run Simulation for Sizing Periods

OS:Timestep,
  {2cc9a476-f94f-45ce-8ed8-a136394df6b6}, !- Handle
  1;                                      !- Number of Timesteps per Hour

OS:ShadowCalculation,
  {6c027bb2-ac53-4443-9d99-9faf4cb1be2a}, !- Handle
  PolygonClipping,                        !- Shading Calculation Method
  ,                                       !- Shading Calculation Update Frequency Method
  20,                                     !- Shading Calculation Update Frequency
  200,                                    !- Maximum Figures in Shadow Overlap Calculations
  ,                                       !- Polygon Clipping Algorithm
  512,                                    !- Pixel Counting Resolution
  ,                                       !- Sky Diffuse Modeling Algorithm
  No,                                     !- Output External Shading Calculation Results
  No,                                     !- Disable Self-Shading Within Shading Zone Groups
  No;                                     !- Disable Self-Shading From Shading Zone Groups to Other Zones

OS:SurfaceConvectionAlgorithm:Outside,
  {7ed029b4-0867-42f3-a52e-9b8a4015b236}, !- Handle
  DOE-2;                                  !- Algorithm

OS:SurfaceConvectionAlgorithm:Inside,
  {cec9cdd3-cd6e-4a38-8bf5-a83916210306}, !- Handle
  TARP;                                   !- Algorithm

OS:ZoneCapacitanceMultiplier:ResearchSpecial,
  {02ffe5c3-ea8d-4fb9-a8f8-d5806fa49a47}, !- Handle
  7,                                      !- Temperature Capacity Multiplier
  15,                                     !- Humidity Capacity Multiplier
  ;                                       !- Carbon Dioxide Capacity Multiplier

OS:ConvergenceLimits,
  {b3599ac2-0fbe-4e39-98b2-be2e82d51068}, !- Handle
  0;                                      !- Minimum System Timestep {minutes}

OS:RunPeriod,
  {819fc527-95bc-496a-8bcd-3b467c07a8ba}, !- Handle
  Run Period 1,                           !- Name
  1,                                      !- Begin Month
  1,                                      !- Begin Day of Month
  12,                                     !- End Month
  31,                                     !- End Day of Month
  ,                                       !- Use Weather File Holidays and Special Days
  ,                                       !- Use Weather File Daylight Saving Period
  ,                                       !- Apply Weekend Holiday Rule
  ,                                       !- Use Weather File Rain Indicators
  ,                                       !- Use Weather File Snow Indicators
  ;                                       !- Number of Times Runperiod to be Repeated

OS:PerformancePrecisionTradeoffs,
  {b0a37c01-551e-4db0-92d4-9d18c400a419}, !- Handle
  ,                                       !- Use Coil Direct Solutions
  CarrollMRT;                             !- Zone Radiant Exchange Algorithm

OS:WeatherFile,
  {bc777cab-6efa-494d-ac97-bcdd6d0be8f7}, !- Handle
  Chicago Midway Ap,                      !- City
  IL,                                     !- State Province Region
  USA,                                    !- Country
  TMY3,                                   !- Data Source
  725340,                                 !- WMO Number
  41.78,                                  !- Latitude {deg}
  -87.75,                                 !- Longitude {deg}
  -6,                                     !- Time Zone {hr}
  186,                                    !- Elevation {m}
  /Users/nmoore/github/urbanopt-example-geojson-project/example_project/resources/residential-measures/weather/G1700310.epw, !- Url
  6A6726C5,                               !- Checksum
  ,                                       !- Start Date Actual Year
  Sunday;                                 !- Start Day of Week

OS:YearDescription,
  {06663f4b-9484-49b4-b8d3-22c0935c413f}, !- Handle
  2007,                                   !- Calendar Year
  ,                                       !- Day of Week for Start Day
  ;                                       !- Is Leap Year

OS:Site,
  {9ad06812-3778-42d2-964b-259918d391b1}, !- Handle
  Chicago_IL,                             !- Name
  41.9396,                                !- Latitude {deg}
  -87.6568,                               !- Longitude {deg}
  -6,                                     !- Time Zone {hr}
  186,                                    !- Elevation {m}
  Suburbs,                                !- Terrain
  Yes;                                    !- Keep Site Location Information

OS:RunPeriodControl:DaylightSavingTime,
  {61e4e8a3-b8b1-4183-910d-3a9d0fc362c8}, !- Handle
  Mar 12,                                 !- Start Date
  Nov 5;                                  !- End Date

OS:Site:GroundTemperature:Shallow,
  {bcf59fb1-2176-4db2-8ecb-1cdf0c5755a3}, !- Handle
  5.77245396328619,                       !- January Surface Ground Temperature {C}
  3.41082217483025,                       !- February Surface Ground Temperature {C}
  3.22169423189523,                       !- March Surface Ground Temperature {C}
  4.34240918640124,                       !- April Surface Ground Temperature {C}
  8.841455217277,                         !- May Surface Ground Temperature {C}
  13.3195427831451,                       !- June Surface Ground Temperature {C}
  17.2018053747264,                       !- July Surface Ground Temperature {C}
  19.6611232441907,                       !- August Surface Ground Temperature {C}
  19.8700558052746,                       !- September Surface Ground Temperature {C}
  17.869814073384,                        !- October Surface Ground Temperature {C}
  14.0865514572217,                       !- November Surface Ground Temperature {C}
  9.74583337830309;                       !- December Surface Ground Temperature {C}

OS:ThermalZone,
  {75894c78-7337-4db3-a8a7-e05b48179df3}, !- Handle
  conditioned space,                      !- Name
  1,                                      !- Multiplier
  ,                                       !- Ceiling Height {m}
  257.796571373568,                       !- Volume {m3}
  ,                                       !- Floor Area {m2}
  ,                                       !- Zone Inside Convection Algorithm
  ,                                       !- Zone Outside Convection Algorithm
  ,                                       !- Zone Conditioning Equipment List Name
  {3d0080a8-f189-4476-a151-2641d5ef6717}, !- Zone Air Inlet Port List
  {f663feb1-e62e-47bc-a4f5-3ac14cdd5e2f}, !- Zone Air Exhaust Port List
  {12223544-8813-4568-b3d8-c1db0528d4ef}, !- Zone Air Node Name
  {23f7506c-43b6-44dd-b6ec-27f34ec489a9}, !- Zone Return Air Port List
  ,                                       !- Primary Daylighting Control Name
  ,                                       !- Fraction of Zone Controlled by Primary Daylighting Control
  ,                                       !- Secondary Daylighting Control Name
  ,                                       !- Fraction of Zone Controlled by Secondary Daylighting Control
  ,                                       !- Illuminance Map Name
  ,                                       !- Group Rendering Name
  {2dc6f6a1-cfe8-4d98-80a7-c14284bb9632}, !- Thermostat Name
  No;                                     !- Use Ideal Air Loads

OS:Node,
  {9a368ee8-a72b-47cc-9485-8c81b753edfe}, !- Handle
  Node 1,                                 !- Name
  {12223544-8813-4568-b3d8-c1db0528d4ef}, !- Inlet Port
  ;                                       !- Outlet Port

OS:Connection,
  {12223544-8813-4568-b3d8-c1db0528d4ef}, !- Handle
  {75894c78-7337-4db3-a8a7-e05b48179df3}, !- Source Object
  11,                                     !- Outlet Port
  {9a368ee8-a72b-47cc-9485-8c81b753edfe}, !- Target Object
  2;                                      !- Inlet Port

OS:PortList,
  {3d0080a8-f189-4476-a151-2641d5ef6717}, !- Handle
  {75894c78-7337-4db3-a8a7-e05b48179df3}, !- HVAC Component
  {989b08a3-780b-47bc-accb-20dfbea2dfca}, !- Port 1
  {037d4344-f9fa-4f20-81da-703475f94d9b}, !- Port 2
  {570c0b2a-79f2-4a56-b1cc-16c8c49b786a}; !- Port 3

OS:PortList,
  {f663feb1-e62e-47bc-a4f5-3ac14cdd5e2f}, !- Handle
  {75894c78-7337-4db3-a8a7-e05b48179df3}, !- HVAC Component
  {1b08948b-83b7-4564-a3d7-3a32f2064565}; !- Port 1

OS:PortList,
  {23f7506c-43b6-44dd-b6ec-27f34ec489a9}, !- Handle
  {75894c78-7337-4db3-a8a7-e05b48179df3}, !- HVAC Component
  {1055f177-4841-4e55-bff0-a6c46ca6715f}, !- Port 1
  {f6a5a728-a90b-4365-951e-2430c5a7b8ef}; !- Port 2

OS:Sizing:Zone,
  {c86b217f-e5c5-4eed-8b52-4f66d67c8ce9}, !- Handle
  {75894c78-7337-4db3-a8a7-e05b48179df3}, !- Zone or ZoneList Name
  SupplyAirTemperature,                   !- Zone Cooling Design Supply Air Temperature Input Method
  14,                                     !- Zone Cooling Design Supply Air Temperature {C}
  11.11,                                  !- Zone Cooling Design Supply Air Temperature Difference {deltaC}
  SupplyAirTemperature,                   !- Zone Heating Design Supply Air Temperature Input Method
  40,                                     !- Zone Heating Design Supply Air Temperature {C}
  11.11,                                  !- Zone Heating Design Supply Air Temperature Difference {deltaC}
  0.0085,                                 !- Zone Cooling Design Supply Air Humidity Ratio {kg-H2O/kg-air}
  0.008,                                  !- Zone Heating Design Supply Air Humidity Ratio {kg-H2O/kg-air}
  ,                                       !- Zone Heating Sizing Factor
  ,                                       !- Zone Cooling Sizing Factor
  DesignDay,                              !- Cooling Design Air Flow Method
  ,                                       !- Cooling Design Air Flow Rate {m3/s}
  ,                                       !- Cooling Minimum Air Flow per Zone Floor Area {m3/s-m2}
  ,                                       !- Cooling Minimum Air Flow {m3/s}
  ,                                       !- Cooling Minimum Air Flow Fraction
  DesignDay,                              !- Heating Design Air Flow Method
  ,                                       !- Heating Design Air Flow Rate {m3/s}
  ,                                       !- Heating Maximum Air Flow per Zone Floor Area {m3/s-m2}
  ,                                       !- Heating Maximum Air Flow {m3/s}
  ,                                       !- Heating Maximum Air Flow Fraction
  No,                                     !- Account for Dedicated Outdoor Air System
  NeutralSupplyAir,                       !- Dedicated Outdoor Air System Control Strategy
  autosize,                               !- Dedicated Outdoor Air Low Setpoint Temperature for Design {C}
  autosize,                               !- Dedicated Outdoor Air High Setpoint Temperature for Design {C}
  Sensible Load Only No Latent Load,      !- Zone Load Sizing Method
  HumidityRatioDifference,                !- Zone Latent Cooling Design Supply Air Humidity Ratio Input Method
  ,                                       !- Zone Dehumidification Design Supply Air Humidity Ratio {kgWater/kgDryAir}
  0.005,                                  !- Zone Cooling Design Supply Air Humidity Ratio Difference {kgWater/kgDryAir}
  HumidityRatioDifference,                !- Zone Latent Heating Design Supply Air Humidity Ratio Input Method
  ,                                       !- Zone Humidification Design Supply Air Humidity Ratio {kgWater/kgDryAir}
  0.005,                                  !- Zone Humidification Design Supply Air Humidity Ratio Difference {kgWater/kgDryAir}
  ,                                       !- Zone Humidistat Dehumidification Set Point Schedule Name
  ,                                       !- Zone Humidistat Humidification Set Point Schedule Name
  ,                                       !- Design Zone Air Distribution Effectiveness in Cooling Mode
  ,                                       !- Design Zone Air Distribution Effectiveness in Heating Mode
  ,                                       !- Design Zone Secondary Recirculation Fraction {dimensionless}
  ,                                       !- Design Minimum Zone Ventilation Efficiency {dimensionless}
  Coincident;                             !- Sizing Option

OS:ZoneHVAC:EquipmentList,
  {7d8a0096-b641-499b-b5b0-b7d967cfe867}, !- Handle
  Zone HVAC Equipment List 1,             !- Name
  {75894c78-7337-4db3-a8a7-e05b48179df3}, !- Thermal Zone
  ,                                       !- Load Distribution Scheme
  {74b93415-55bb-4866-b02d-2c130e85e9ac}, !- Zone Equipment 1
  1,                                      !- Zone Equipment Cooling Sequence 1
  1,                                      !- Zone Equipment Heating or No-Load Sequence 1
  {3e5cd72d-11a1-4256-bf8b-316b7674cc0e}, !- Zone Equipment Sequential Cooling Fraction Schedule Name 1
  {f104bd66-ff9b-42e2-84ff-4444ee20f405}, !- Zone Equipment Sequential Heating Fraction Schedule Name 1
  {4a77ae27-93f1-45d5-adbd-12a48b508ca1}, !- Zone Equipment 2
  2,                                      !- Zone Equipment Cooling Sequence 2
  2,                                      !- Zone Equipment Heating or No-Load Sequence 2
  {d3ade0ed-b8a3-4f50-8dc1-9181431a1f1c}, !- Zone Equipment Sequential Cooling Fraction Schedule Name 2
  {65b08bd3-a1b5-4dae-8dd3-5a222704d9ab}, !- Zone Equipment Sequential Heating Fraction Schedule Name 2
  {021d0491-08fd-42b5-9dfa-1e49483645f8}, !- Zone Equipment 3
  3,                                      !- Zone Equipment Cooling Sequence 3
  3,                                      !- Zone Equipment Heating or No-Load Sequence 3
  {a402a037-2a08-48f4-af7c-a54bc91c8e14}, !- Zone Equipment Sequential Cooling Fraction Schedule Name 3
  {15fed5cc-ecab-400b-83b7-6fe272e9028b}; !- Zone Equipment Sequential Heating Fraction Schedule Name 3

OS:AdditionalProperties,
  {d50d0beb-d8ef-4afc-90cb-327a2a4cea80}, !- Handle
  {75894c78-7337-4db3-a8a7-e05b48179df3}, !- Object Name
  ObjectType,                             !- Feature Name 1
  String,                                 !- Feature Data Type 1
  conditioned space;                      !- Feature Value 1

OS:Space,
  {97e5690c-d6a9-4e26-a059-555615f5f198}, !- Handle
  conditioned space 1,                    !- Name
  ,                                       !- Space Type Name
  ,                                       !- Default Construction Set Name
  ,                                       !- Default Schedule Set Name
  ,                                       !- Direction of Relative North {deg}
  ,                                       !- X Origin {m}
  ,                                       !- Y Origin {m}
  ,                                       !- Z Origin {m}
  ,                                       !- Building Story Name
  {75894c78-7337-4db3-a8a7-e05b48179df3}, !- Thermal Zone Name
  ,                                       !- Part of Total Floor Area
  ,                                       !- Design Specification Outdoor Air Object Name
  ,                                       !- Building Unit Name
  257.796571373568;                       !- Volume {m3}

OS:Schedule:Ruleset,
  {8e039fef-1dbe-4703-8cd6-be95a4a77b5d}, !- Handle
  heating setpoint,                       !- Name
  {19f5c7bc-5107-476d-aa13-1870e83571f4}, !- Schedule Type Limits Name
  {9598d446-98eb-4cb4-83a3-dcf9a4cb51ed}; !- Default Day Schedule Name

OS:Schedule:Day,
  {9598d446-98eb-4cb4-83a3-dcf9a4cb51ed}, !- Handle
  heating setpoint default day,           !- Name
  {19f5c7bc-5107-476d-aa13-1870e83571f4}, !- Schedule Type Limits Name
  ,                                       !- Interpolate to Timestep
  24,                                     !- Hour 1
  0,                                      !- Minute 1
  0;                                      !- Value Until Time 1

OS:Schedule:Rule,
  {c50e873a-b5d3-4ff7-ba25-9f5a91ffedc4}, !- Handle
  heating setpoint allday rule,           !- Name
  {8e039fef-1dbe-4703-8cd6-be95a4a77b5d}, !- Schedule Ruleset Name
  0,                                      !- Rule Order
  {6475dd26-9f14-410c-80f8-d1703f9c5af9}, !- Day Schedule Name
  Yes,                                    !- Apply Sunday
  Yes,                                    !- Apply Monday
  Yes,                                    !- Apply Tuesday
  Yes,                                    !- Apply Wednesday
  Yes,                                    !- Apply Thursday
  Yes,                                    !- Apply Friday
  Yes,                                    !- Apply Saturday
  DateRange,                              !- Date Specification Type
  1,                                      !- Start Month
  1,                                      !- Start Day
  12,                                     !- End Month
  31;                                     !- End Day

OS:Schedule:Day,
  {6475dd26-9f14-410c-80f8-d1703f9c5af9}, !- Handle
  heating setpoint day,                   !- Name
  {19f5c7bc-5107-476d-aa13-1870e83571f4}, !- Schedule Type Limits Name
  ,                                       !- Interpolate to Timestep
  1,                                      !- Hour 1
  0,                                      !- Minute 1
  21.1111111111111,                       !- Value Until Time 1
  10,                                     !- Hour 2
  0,                                      !- Minute 2
  17.7777777777778,                       !- Value Until Time 2
  24,                                     !- Hour 3
  0,                                      !- Minute 3
  21.1111111111111;                       !- Value Until Time 3

OS:Schedule:Ruleset,
  {52c0b10b-043f-4734-8615-0b0d3642bd09}, !- Handle
  cooling setpoint,                       !- Name
  {19f5c7bc-5107-476d-aa13-1870e83571f4}, !- Schedule Type Limits Name
  {fb9dc43c-a47a-45b7-9622-efdfb151a98f}; !- Default Day Schedule Name

OS:Schedule:Day,
  {fb9dc43c-a47a-45b7-9622-efdfb151a98f}, !- Handle
  cooling setpoint default day,           !- Name
  {19f5c7bc-5107-476d-aa13-1870e83571f4}, !- Schedule Type Limits Name
  ,                                       !- Interpolate to Timestep
  24,                                     !- Hour 1
  0,                                      !- Minute 1
  0;                                      !- Value Until Time 1

OS:Schedule:Rule,
  {28062399-2799-4954-8da6-9529cc92fd5d}, !- Handle
  cooling setpoint allday rule,           !- Name
  {52c0b10b-043f-4734-8615-0b0d3642bd09}, !- Schedule Ruleset Name
  0,                                      !- Rule Order
  {6e219053-3adb-4f91-bf2f-fff72bf089c4}, !- Day Schedule Name
  Yes,                                    !- Apply Sunday
  Yes,                                    !- Apply Monday
  Yes,                                    !- Apply Tuesday
  Yes,                                    !- Apply Wednesday
  Yes,                                    !- Apply Thursday
  Yes,                                    !- Apply Friday
  Yes,                                    !- Apply Saturday
  DateRange,                              !- Date Specification Type
  1,                                      !- Start Month
  1,                                      !- Start Day
  12,                                     !- End Month
  31;                                     !- End Day

OS:Schedule:Day,
  {6e219053-3adb-4f91-bf2f-fff72bf089c4}, !- Handle
  cooling setpoint day,                   !- Name
  {19f5c7bc-5107-476d-aa13-1870e83571f4}, !- Schedule Type Limits Name
  ,                                       !- Interpolate to Timestep
  24,                                     !- Hour 1
  0,                                      !- Minute 1
  21.1111111111111;                       !- Value Until Time 1

OS:ThermostatSetpoint:DualSetpoint,
  {2dc6f6a1-cfe8-4d98-80a7-c14284bb9632}, !- Handle
  conditioned space temperature setpoint, !- Name
  {8e039fef-1dbe-4703-8cd6-be95a4a77b5d}, !- Heating Setpoint Temperature Schedule Name
  {52c0b10b-043f-4734-8615-0b0d3642bd09}, !- Cooling Setpoint Temperature Schedule Name
  0;                                      !- Temperature Difference Between Cutout And Setpoint {deltaC}

OS:ScheduleTypeLimits,
  {19f5c7bc-5107-476d-aa13-1870e83571f4}, !- Handle
  Temperature,                            !- Name
  ,                                       !- Lower Limit Value
  ,                                       !- Upper Limit Value
  Continuous,                             !- Numeric Type
  Temperature;                            !- Unit Type

OS:Surface,
  {179432bf-79b1-4bc4-b338-54e98337f593}, !- Handle
  Wall1,                                  !- Name
  Wall,                                   !- Surface Type
  {e2810762-2565-40c5-8a13-82a22725b4d1}, !- Construction Name
  {97e5690c-d6a9-4e26-a059-555615f5f198}, !- Space Name
  Outdoors,                               !- Outside Boundary Condition
  ,                                       !- Outside Boundary Condition Object
  SunExposed,                             !- Sun Exposure
  WindExposed,                            !- Wind Exposure
  ,                                       !- View Factor to Ground
  ,                                       !- Number of Vertices
  7.3625202, 2.11887162857143, 0,         !- X,Y,Z Vertex 1 {m}
  7.3625202, 2.11887162857143, 2.4384,    !- X,Y,Z Vertex 2 {m}
  7.3625202, -4.85723837142857, 2.4384,   !- X,Y,Z Vertex 3 {m}
  7.3625202, -4.85723837142857, 0;        !- X,Y,Z Vertex 4 {m}

OS:AdditionalProperties,
  {bcbb7a48-9e03-4127-a0af-139259385939}, !- Handle
  {179432bf-79b1-4bc4-b338-54e98337f593}, !- Object Name
  Length,                                 !- Feature Name 1
  Double,                                 !- Feature Data Type 1
  22.887499999999999,                     !- Feature Value 1
  Azimuth,                                !- Feature Name 2
  Integer,                                !- Feature Data Type 2
  90,                                     !- Feature Value 2
  Tilt,                                   !- Feature Name 3
  Double,                                 !- Feature Data Type 3
  90,                                     !- Feature Value 3
  SurfaceType,                            !- Feature Name 4
  String,                                 !- Feature Data Type 4
  Wall;                                   !- Feature Value 4

OS:Material,
  {672635be-6ec5-44b6-8dea-6f4c8c0309d2}, !- Handle
  osb sheathing 0.5 in.,                  !- Name
  Rough,                                  !- Roughness
  0.0127,                                 !- Thickness {m}
  0.1154577,                              !- Conductivity {W/m-K}
  512.64,                                 !- Density {kg/m3}
  1214.23,                                !- Specific Heat {J/kg-K}
  0.9,                                    !- Thermal Absorptance
  0.7,                                    !- Solar Absorptance
  0.7;                                    !- Visible Absorptance

OS:Material,
  {0bd10bdc-b2e2-4913-816e-ccb6ec5598af}, !- Handle
  wall layer 1,                           !- Name
  Rough,                                  !- Roughness
  0.2032,                                 !- Thickness {m}
  0.138230935374327,                      !- Conductivity {W/m-K}
  1762.2,                                 !- Density {kg/m3}
  795.53,                                 !- Specific Heat {J/kg-K}
  0.9,                                    !- Thermal Absorptance
  0.7,                                    !- Solar Absorptance
  0.7;                                    !- Visible Absorptance

OS:Material,
  {4e6aa058-1a16-41ed-bd2c-73821fc2e228}, !- Handle
  gypsum board,                           !- Name
  Rough,                                  !- Roughness
  0.0127,                                 !- Thickness {m}
  0.1602906,                              !- Conductivity {W/m-K}
  801,                                    !- Density {kg/m3}
  837.4,                                  !- Specific Heat {J/kg-K}
  0.9,                                    !- Thermal Absorptance
  0.6,                                    !- Solar Absorptance
  0.6;                                    !- Visible Absorptance

OS:Construction,
  {e2810762-2565-40c5-8a13-82a22725b4d1}, !- Handle
  Wall1 construction,                     !- Name
  ,                                       !- Surface Rendering Name
  {672635be-6ec5-44b6-8dea-6f4c8c0309d2}, !- Layer 1
  {0bd10bdc-b2e2-4913-816e-ccb6ec5598af}, !- Layer 2
  {4e6aa058-1a16-41ed-bd2c-73821fc2e228}; !- Layer 3

OS:Surface,
  {d2c4e49d-6dca-428a-a0c2-b14e93e944dd}, !- Handle
  Wall2,                                  !- Name
  Wall,                                   !- Surface Type
  {82ff6849-5312-474a-9203-9999dae6b685}, !- Construction Name
  {97e5690c-d6a9-4e26-a059-555615f5f198}, !- Space Name
  Adiabatic,                              !- Outside Boundary Condition
  ,                                       !- Outside Boundary Condition Object
  NoSun,                                  !- Sun Exposure
  NoWind,                                 !- Wind Exposure
  ,                                       !- View Factor to Ground
  ,                                       !- Number of Vertices
  6.4334898, -7.3625202, 0,               !- X,Y,Z Vertex 1 {m}
  6.4334898, -7.3625202, 2.4384,          !- X,Y,Z Vertex 2 {m}
  -7.3625202, -7.3625202, 2.4384,         !- X,Y,Z Vertex 3 {m}
  -7.3625202, -7.3625202, 0;              !- X,Y,Z Vertex 4 {m}

OS:AdditionalProperties,
  {117d4819-9466-4c20-a4b8-f78f3b5a7d45}, !- Handle
  {d2c4e49d-6dca-428a-a0c2-b14e93e944dd}, !- Object Name
  Length,                                 !- Feature Name 1
  Double,                                 !- Feature Data Type 1
  45.262500000000003,                     !- Feature Value 1
  Azimuth,                                !- Feature Name 2
  Integer,                                !- Feature Data Type 2
  180,                                    !- Feature Value 2
  Tilt,                                   !- Feature Name 3
  Double,                                 !- Feature Data Type 3
  90,                                     !- Feature Value 3
  SurfaceType,                            !- Feature Name 4
  String,                                 !- Feature Data Type 4
  Wall;                                   !- Feature Value 4

OS:Material,
  {5a8c3af2-7f24-4c2c-b4ce-cf1e7b3a19fe}, !- Handle
  osb sheathing 0.5 in. 1,                !- Name
  Rough,                                  !- Roughness
  0.0127,                                 !- Thickness {m}
  0.1154577,                              !- Conductivity {W/m-K}
  512.64,                                 !- Density {kg/m3}
  1214.23;                                !- Specific Heat {J/kg-K}

OS:Material,
  {0397f7c8-0a55-4f84-8d6d-8cab19b9a292}, !- Handle
  wall layer 2,                           !- Name
  Rough,                                  !- Roughness
  0.2032,                                 !- Thickness {m}
  0.737216100603452,                      !- Conductivity {W/m-K}
  1762.2,                                 !- Density {kg/m3}
  795.53,                                 !- Specific Heat {J/kg-K}
  0.9,                                    !- Thermal Absorptance
  0.7,                                    !- Solar Absorptance
  0.7;                                    !- Visible Absorptance

OS:Construction,
  {82ff6849-5312-474a-9203-9999dae6b685}, !- Handle
  Wall2 construction,                     !- Name
  ,                                       !- Surface Rendering Name
  {5a8c3af2-7f24-4c2c-b4ce-cf1e7b3a19fe}, !- Layer 1
  {0397f7c8-0a55-4f84-8d6d-8cab19b9a292}, !- Layer 2
  {4e6aa058-1a16-41ed-bd2c-73821fc2e228}; !- Layer 3

OS:Surface,
  {66f1b970-c6e0-4e2e-880c-487ffe2c4f26}, !- Handle
  Wall3,                                  !- Name
  Wall,                                   !- Surface Type
  {a0febed9-69bc-44e7-b9df-51e6934f78b2}, !- Construction Name
  {97e5690c-d6a9-4e26-a059-555615f5f198}, !- Space Name
  Outdoors,                               !- Outside Boundary Condition
  ,                                       !- Outside Boundary Condition Object
  SunExposed,                             !- Sun Exposure
  WindExposed,                            !- Wind Exposure
  ,                                       !- View Factor to Ground
  ,                                       !- Number of Vertices
  -7.3625202, -3.46255362848576, 0,       !- X,Y,Z Vertex 1 {m}
  -7.3625202, -3.46255362848576, 2.4384,  !- X,Y,Z Vertex 2 {m}
  -7.3625202, 2.75155637151424, 2.4384,   !- X,Y,Z Vertex 3 {m}
  -7.3625202, 2.75155637151424, 0;        !- X,Y,Z Vertex 4 {m}

OS:AdditionalProperties,
  {8c2cc6bc-af59-4bf8-befd-8c7d2e180eb6}, !- Handle
  {66f1b970-c6e0-4e2e-880c-487ffe2c4f26}, !- Object Name
  Length,                                 !- Feature Name 1
  Double,                                 !- Feature Data Type 1
  20.387499999999999,                     !- Feature Value 1
  Azimuth,                                !- Feature Name 2
  Integer,                                !- Feature Data Type 2
  270,                                    !- Feature Value 2
  Tilt,                                   !- Feature Name 3
  Double,                                 !- Feature Data Type 3
  90,                                     !- Feature Value 3