
OS:Version,
  {e03d10c5-0426-429c-96e5-51ec82e62cb1}, !- Handle
  3.9.0;                                  !- Version Identifier

OS:SimulationControl,
  {55d827ec-6175-4aa9-8a24-c2730dabd569}, !- Handle
  ,                                       !- Do Zone Sizing Calculation
  ,                                       !- Do System Sizing Calculation
  ,                                       !- Do Plant Sizing Calculation
  No;                                     !- Run Simulation for Sizing Periods

OS:Timestep,
  {21508948-93ad-4443-a7ed-a866f16f57b8}, !- Handle
  1;                                      !- Number of Timesteps per Hour

OS:ShadowCalculation,
  {d58646f0-21c5-4321-ac51-62e5bed307df}, !- Handle
  PolygonClipping,                        !- Shading Calculation Method
  ,                                       !- Shading Calculation Update Frequency Method
  20,                                     !- Shading Calculation Update Frequency
  200,                                    !- Maximum Figures in Shadow Overlap Calculations
  ,                                       !- Polygon Clipping Algorithm
  512,                                    !- Pixel Counting Resolution
  ,                                       !- Sky Diffuse Modeling Algorithm
  No,                                     !- Output External Shading Calculation Results
  No,                                     !- Disable Self-Shading Within Shading Zone Groups
  No;                                     !- Disable Self-Shading From Shading Zone Groups to Other Zones

OS:SurfaceConvectionAlgorithm:Outside,
  {7ad64baf-0919-4f2d-b028-cd6884a53443}, !- Handle
  DOE-2;                                  !- Algorithm

OS:SurfaceConvectionAlgorithm:Inside,
  {32283c6f-1da8-408b-858e-0f4c8208e030}, !- Handle
  TARP;                                   !- Algorithm

OS:ZoneCapacitanceMultiplier:ResearchSpecial,
  {bc1d3341-2f53-4db7-ac4e-07714dccea30}, !- Handle
  7,                                      !- Temperature Capacity Multiplier
  15,                                     !- Humidity Capacity Multiplier
  ;                                       !- Carbon Dioxide Capacity Multiplier

OS:ConvergenceLimits,
  {55bc17e7-3828-4773-b659-b02f6c989397}, !- Handle
  0;                                      !- Minimum System Timestep {minutes}

OS:RunPeriod,
  {d55f6c67-274d-4ae9-8f1e-33b166182ed3}, !- Handle
  Run Period 1,                           !- Name
  1,                                      !- Begin Month
  1,                                      !- Begin Day of Month
  12,                                     !- End Month
  31,                                     !- End Day of Month
  ,                                       !- Use Weather File Holidays and Special Days
  ,                                       !- Use Weather File Daylight Saving Period
  ,                                       !- Apply Weekend Holiday Rule
  ,                                       !- Use Weather File Rain Indicators
  ,                                       !- Use Weather File Snow Indicators
  ;                                       !- Number of Times Runperiod to be Repeated

OS:PerformancePrecisionTradeoffs,
  {3862b565-d219-4c24-8fcf-01383b865a68}, !- Handle
  ,                                       !- Use Coil Direct Solutions
  CarrollMRT;                             !- Zone Radiant Exchange Algorithm

OS:WeatherFile,
  {ce1caacd-5f69-4843-be8d-2e3627972f0e}, !- Handle
  Gulfport-Biloxi Intl AP,                !- City
  MS,                                     !- State Province Region
  USA,                                    !- Country
  TMY3,                                   !- Data Source
  747570,                                 !- WMO Number
  30.4,                                   !- Latitude {deg}
  -89.067,                                !- Longitude {deg}
  -6,                                     !- Time Zone {hr}
  9,                                      !- Elevation {m}
  /Users/nmoore/github/urbanopt-example-geojson-project/example_project/resources/residential-measures/weather/G2800470.epw, !- Url
  883A13F9,                               !- Checksum
  ,                                       !- Start Date Actual Year
  Sunday;                                 !- Start Day of Week

OS:YearDescription,
  {c671ca16-8b3f-417b-bfa4-eca2f228ba92}, !- Handle
  2007,                                   !- Calendar Year
  ,                                       !- Day of Week for Start Day
  ;                                       !- Is Leap Year

OS:Site,
  {227c56e6-9cdb-4a3d-a1e5-00e372417647}, !- Handle
  Gulfport-Biloxi Intl AP_MS,             !- Name
  30.4,                                   !- Latitude {deg}
  -89.067,                                !- Longitude {deg}
  -6,                                     !- Time Zone {hr}
  9,                                      !- Elevation {m}
  Suburbs,                                !- Terrain
  Yes;                                    !- Keep Site Location Information

OS:RunPeriodControl:DaylightSavingTime,
  {19150a60-9c7e-4d06-bf41-93bb5e5c00cd}, !- Handle
  Mar 12,                                 !- Start Date
  Nov 5;                                  !- End Date

OS:Site:GroundTemperature:Shallow,
  {ce5191e4-9720-41eb-9acb-5339ef545656}, !- Handle
  16.7720275803981,                       !- January Surface Ground Temperature {C}
  15.5043928083015,                       !- February Surface Ground Temperature {C}
  15.4028760697432,                       !- March Surface Ground Temperature {C}
  16.004433540677,                        !- April Surface Ground Temperature {C}
  18.4193515723022,                       !- May Surface Ground Temperature {C}
  20.8230198912739,                       !- June Surface Ground Temperature {C}
  22.9068718615746,                       !- July Surface Ground Temperature {C}
  24.2269408334653,                       !- August Surface Ground Temperature {C}
  24.3390879432509,                       !- September Surface Ground Temperature {C}
  23.2654337079304,                       !- October Surface Ground Temperature {C}
  21.2347211863327,                       !- November Surface Ground Temperature {C}
  18.9047876210739;                       !- December Surface Ground Temperature {C}

OS:ThermalZone,
  {8b6c355c-8961-4629-ae4f-3f34a451d9e8}, !- Handle
  conditioned space,                      !- Name
  1,                                      !- Multiplier
  ,                                       !- Ceiling Height {m}
  257.796571373568,                       !- Volume {m3}
  ,                                       !- Floor Area {m2}
  ,                                       !- Zone Inside Convection Algorithm
  ,                                       !- Zone Outside Convection Algorithm
  ,                                       !- Zone Conditioning Equipment List Name
  {77498b9c-001a-483e-85ca-fd435280acbb}, !- Zone Air Inlet Port List
  {bc5f6913-e44d-4d4d-aaec-c966cefd2d30}, !- Zone Air Exhaust Port List
  {94064704-27c4-4f8f-9cb2-768dc7cc1552}, !- Zone Air Node Name
  {b8b33ec6-fe86-4099-add3-a5b3c0c543c2}, !- Zone Return Air Port List
  ,                                       !- Primary Daylighting Control Name
  ,                                       !- Fraction of Zone Controlled by Primary Daylighting Control
  ,                                       !- Secondary Daylighting Control Name
  ,                                       !- Fraction of Zone Controlled by Secondary Daylighting Control
  ,                                       !- Illuminance Map Name
  ,                                       !- Group Rendering Name
  {0e9ac105-bf51-4004-b55a-c0a04047e1cf}, !- Thermostat Name
  No;                                     !- Use Ideal Air Loads

OS:Node,
  {e393c422-b3b6-4927-ba2c-679da2b3d3f9}, !- Handle
  Node 1,                                 !- Name
  {94064704-27c4-4f8f-9cb2-768dc7cc1552}, !- Inlet Port
  ;                                       !- Outlet Port

OS:Connection,
  {94064704-27c4-4f8f-9cb2-768dc7cc1552}, !- Handle
  {8b6c355c-8961-4629-ae4f-3f34a451d9e8}, !- Source Object
  11,                                     !- Outlet Port
  {e393c422-b3b6-4927-ba2c-679da2b3d3f9}, !- Target Object
  2;                                      !- Inlet Port

OS:PortList,
  {77498b9c-001a-483e-85ca-fd435280acbb}, !- Handle
  {8b6c355c-8961-4629-ae4f-3f34a451d9e8}, !- HVAC Component
  {8f26ae78-bd95-454a-a6b4-8e1a7b55b4c9}; !- Port 1

OS:PortList,
  {bc5f6913-e44d-4d4d-aaec-c966cefd2d30}, !- Handle
  {8b6c355c-8961-4629-ae4f-3f34a451d9e8}; !- HVAC Component

OS:PortList,
  {b8b33ec6-fe86-4099-add3-a5b3c0c543c2}, !- Handle
  {8b6c355c-8961-4629-ae4f-3f34a451d9e8}, !- HVAC Component
  {107a78ee-026b-40c5-be8e-7901e496f2d4}; !- Port 1

OS:Sizing:Zone,
  {f3f5dc14-cf43-463b-9f66-d351fb18e7ef}, !- Handle
  {8b6c355c-8961-4629-ae4f-3f34a451d9e8}, !- Zone or ZoneList Name
  SupplyAirTemperature,                   !- Zone Cooling Design Supply Air Temperature Input Method
  14,                                     !- Zone Cooling Design Supply Air Temperature {C}
  11.11,                                  !- Zone Cooling Design Supply Air Temperature Difference {deltaC}
  SupplyAirTemperature,                   !- Zone Heating Design Supply Air Temperature Input Method
  40,                                     !- Zone Heating Design Supply Air Temperature {C}
  11.11,                                  !- Zone Heating Design Supply Air Temperature Difference {deltaC}
  0.0085,                                 !- Zone Cooling Design Supply Air Humidity Ratio {kg-H2O/kg-air}
  0.008,                                  !- Zone Heating Design Supply Air Humidity Ratio {kg-H2O/kg-air}
  ,                                       !- Zone Heating Sizing Factor
  ,                                       !- Zone Cooling Sizing Factor
  DesignDay,                              !- Cooling Design Air Flow Method
  ,                                       !- Cooling Design Air Flow Rate {m3/s}
  ,                                       !- Cooling Minimum Air Flow per Zone Floor Area {m3/s-m2}
  ,                                       !- Cooling Minimum Air Flow {m3/s}
  ,                                       !- Cooling Minimum Air Flow Fraction
  DesignDay,                              !- Heating Design Air Flow Method
  ,                                       !- Heating Design Air Flow Rate {m3/s}
  ,                                       !- Heating Maximum Air Flow per Zone Floor Area {m3/s-m2}
  ,                                       !- Heating Maximum Air Flow {m3/s}
  ,                                       !- Heating Maximum Air Flow Fraction
  No,                                     !- Account for Dedicated Outdoor Air System
  NeutralSupplyAir,                       !- Dedicated Outdoor Air System Control Strategy
  autosize,                               !- Dedicated Outdoor Air Low Setpoint Temperature for Design {C}
  autosize,                               !- Dedicated Outdoor Air High Setpoint Temperature for Design {C}
  Sensible Load Only No Latent Load,      !- Zone Load Sizing Method
  HumidityRatioDifference,                !- Zone Latent Cooling Design Supply Air Humidity Ratio Input Method
  ,                                       !- Zone Dehumidification Design Supply Air Humidity Ratio {kgWater/kgDryAir}
  0.005,                                  !- Zone Cooling Design Supply Air Humidity Ratio Difference {kgWater/kgDryAir}
  HumidityRatioDifference,                !- Zone Latent Heating Design Supply Air Humidity Ratio Input Method
  ,                                       !- Zone Humidification Design Supply Air Humidity Ratio {kgWater/kgDryAir}
  0.005,                                  !- Zone Humidification Design Supply Air Humidity Ratio Difference {kgWater/kgDryAir}
  ,                                       !- Zone Humidistat Dehumidification Set Point Schedule Name
  ,                                       !- Zone Humidistat Humidification Set Point Schedule Name
  ,                                       !- Design Zone Air Distribution Effectiveness in Cooling Mode
  ,                                       !- Design Zone Air Distribution Effectiveness in Heating Mode
  ,                                       !- Design Zone Secondary Recirculation Fraction {dimensionless}
  ,                                       !- Design Minimum Zone Ventilation Efficiency {dimensionless}
  Coincident;                             !- Sizing Option

OS:ZoneHVAC:EquipmentList,
  {904cfb55-4969-490b-9386-56a1341db99d}, !- Handle
  Zone HVAC Equipment List 1,             !- Name
  {8b6c355c-8961-4629-ae4f-3f34a451d9e8}, !- Thermal Zone
  ,                                       !- Load Distribution Scheme
  {fab2f162-c956-48f5-97da-5be57a9a161f}, !- Zone Equipment 1
  1,                                      !- Zone Equipment Cooling Sequence 1
  1,                                      !- Zone Equipment Heating or No-Load Sequence 1
  {0b36d810-28b0-45a7-ace5-5fa6ae5b109a}, !- Zone Equipment Sequential Cooling Fraction Schedule Name 1
  {1cba614b-e7b7-4ad9-8432-7d2b714f2d60}; !- Zone Equipment Sequential Heating Fraction Schedule Name 1

OS:AdditionalProperties,
  {d5da6313-f442-4783-8f1e-e7af2ad491df}, !- Handle
  {8b6c355c-8961-4629-ae4f-3f34a451d9e8}, !- Object Name
  ObjectType,                             !- Feature Name 1
  String,                                 !- Feature Data Type 1
  conditioned space;                      !- Feature Value 1

OS:Space,
  {a4a8966c-8188-49a0-8797-f73757319175}, !- Handle
  conditioned space 1,                    !- Name
  ,                                       !- Space Type Name
  ,                                       !- Default Construction Set Name
  ,                                       !- Default Schedule Set Name
  ,                                       !- Direction of Relative North {deg}
  ,                                       !- X Origin {m}
  ,                                       !- Y Origin {m}
  ,                                       !- Z Origin {m}
  ,                                       !- Building Story Name
  {8b6c355c-8961-4629-ae4f-3f34a451d9e8}, !- Thermal Zone Name
  ,                                       !- Part of Total Floor Area
  ,                                       !- Design Specification Outdoor Air Object Name
  ,                                       !- Building Unit Name
  257.796571373568;                       !- Volume {m3}

OS:Schedule:Ruleset,
  {4a247176-f8cc-47b6-9d9a-eec456faac7f}, !- Handle
  heating setpoint,                       !- Name
  {a52fb630-84d5-49dc-8494-7b4b1bb1738a}, !- Schedule Type Limits Name
  {bf427979-3a56-4d8e-92c6-0873a3191923}; !- Default Day Schedule Name

OS:Schedule:Day,
  {bf427979-3a56-4d8e-92c6-0873a3191923}, !- Handle
  heating setpoint default day,           !- Name
  {a52fb630-84d5-49dc-8494-7b4b1bb1738a}, !- Schedule Type Limits Name
  ,                                       !- Interpolate to Timestep
  24,                                     !- Hour 1
  0,                                      !- Minute 1
  0;                                      !- Value Until Time 1

OS:Schedule:Rule,
  {4ccd0db6-a5b5-4abe-9c0f-e2239be81234}, !- Handle
  heating setpoint allday rule,           !- Name
  {4a247176-f8cc-47b6-9d9a-eec456faac7f}, !- Schedule Ruleset Name
  4,                                      !- Rule Order
  {f301205f-3502-447f-84f9-91da1703ed01}, !- Day Schedule Name
  Yes,                                    !- Apply Sunday
  Yes,                                    !- Apply Monday
  Yes,                                    !- Apply Tuesday
  Yes,                                    !- Apply Wednesday
  Yes,                                    !- Apply Thursday
  Yes,                                    !- Apply Friday
  Yes,                                    !- Apply Saturday
  DateRange,                              !- Date Specification Type
  1,                                      !- Start Month
  1,                                      !- Start Day
  3,                                      !- End Month
  31;                                     !- End Day

OS:Schedule:Day,
  {f301205f-3502-447f-84f9-91da1703ed01}, !- Handle
  heating setpoint day,                   !- Name
  {a52fb630-84d5-49dc-8494-7b4b1bb1738a}, !- Schedule Type Limits Name
  ,                                       !- Interpolate to Timestep
  24,                                     !- Hour 1
  0,                                      !- Minute 1
  24.4444444444444;                       !- Value Until Time 1

OS:Schedule:Rule,
  {8c4c48bc-fc22-4dc4-ac0c-ac95ccdfa8fa}, !- Handle
  heating setpoint allday rule 1,         !- Name
  {4a247176-f8cc-47b6-9d9a-eec456faac7f}, !- Schedule Ruleset Name
  3,                                      !- Rule Order
  {25c98b32-8ccc-458e-a05a-c315097968cf}, !- Day Schedule Name
  Yes,                                    !- Apply Sunday
  Yes,                                    !- Apply Monday
  Yes,                                    !- Apply Tuesday
  Yes,                                    !- Apply Wednesday
  Yes,                                    !- Apply Thursday
  Yes,                                    !- Apply Friday
  Yes,                                    !- Apply Saturday
  DateRange,                              !- Date Specification Type
  4,                                      !- Start Month
  1,                                      !- Start Day
  5,                                      !- End Month
  31;                                     !- End Day

OS:Schedule:Day,
  {25c98b32-8ccc-458e-a05a-c315097968cf}, !- Handle
  heating setpoint day 1,                 !- Name
  {a52fb630-84d5-49dc-8494-7b4b1bb1738a}, !- Schedule Type Limits Name
  ,                                       !- Interpolate to Timestep
  3,                                      !- Hour 1
  0,                                      !- Minute 1
  20.8333333333333,                       !- Value Until Time 1
  18,                                     !- Hour 2
  0,                                      !- Minute 2
  22.2222222222222,                       !- Value Until Time 2
  24,                                     !- Hour 3
  0,                                      !- Minute 3
  20.8333333333333;                       !- Value Until Time 3

OS:Schedule:Rule,
  {7521422c-d59d-44c5-83d0-a288e82242b1}, !- Handle
  heating setpoint allday rule 2,         !- Name
  {4a247176-f8cc-47b6-9d9a-eec456faac7f}, !- Schedule Ruleset Name
  2,                                      !- Rule Order
  {780248e2-a22d-4790-8b9b-5bf47559be8e}, !- Day Schedule Name
  Yes,                                    !- Apply Sunday
  Yes,                                    !- Apply Monday
  Yes,                                    !- Apply Tuesday
  Yes,                                    !- Apply Wednesday
  Yes,                                    !- Apply Thursday
  Yes,                                    !- Apply Friday
  Yes,                                    !- Apply Saturday
  DateRange,                              !- Date Specification Type
  6,                                      !- Start Month
  1,                                      !- Start Day
  10,                                     !- End Month
  31;                                     !- End Day

OS:Schedule:Day,
  {780248e2-a22d-4790-8b9b-5bf47559be8e}, !- Handle
  heating setpoint day 2,                 !- Name
  {a52fb630-84d5-49dc-8494-7b4b1bb1738a}, !- Schedule Type Limits Name
  ,                                       !- Interpolate to Timestep
  3,                                      !- Hour 1
  0,                                      !- Minute 1
  17.2222222222222,                       !- Value Until Time 1
  18,                                     !- Hour 2
  0,                                      !- Minute 2
  20,                                     !- Value Until Time 2
  24,                                     !- Hour 3
  0,                                      !- Minute 3
  17.2222222222222;                       !- Value Until Time 3

OS:Schedule:Rule,
  {f4a470de-fa70-4ac5-a1e7-2c92d407fa47}, !- Handle
  heating setpoint allday rule 3,         !- Name
  {4a247176-f8cc-47b6-9d9a-eec456faac7f}, !- Schedule Ruleset Name
  1,                                      !- Rule Order
  {a9297565-9dd0-4b4d-a1d5-c78fa4ba1185}, !- Day Schedule Name
  Yes,                                    !- Apply Sunday
  Yes,                                    !- Apply Monday
  Yes,                                    !- Apply Tuesday
  Yes,                                    !- Apply Wednesday
  Yes,                                    !- Apply Thursday
  Yes,                                    !- Apply Friday
  Yes,                                    !- Apply Saturday
  DateRange,                              !- Date Specification Type
  11,                                     !- Start Month
  1,                                      !- Start Day
  11,                                     !- End Month
  30;                                     !- End Day

OS:Schedule:Day,
  {a9297565-9dd0-4b4d-a1d5-c78fa4ba1185}, !- Handle
  heating setpoint day 3,                 !- Name
  {a52fb630-84d5-49dc-8494-7b4b1bb1738a}, !- Schedule Type Limits Name
  ,                                       !- Interpolate to Timestep
  3,                                      !- Hour 1
  0,                                      !- Minute 1
  20.8333333333333,                       !- Value Until Time 1
  18,                                     !- Hour 2
  0,                                      !- Minute 2
  22.2222222222222,                       !- Value Until Time 2
  24,                                     !- Hour 3
  0,                                      !- Minute 3
  20.8333333333333;                       !- Value Until Time 3

OS:Schedule:Rule,
  {f477a4a2-3cfa-4e90-ac4a-fa83342c6212}, !- Handle
  heating setpoint allday rule 4,         !- Name
  {4a247176-f8cc-47b6-9d9a-eec456faac7f}, !- Schedule Ruleset Name
  0,                                      !- Rule Order
  {b84369a0-1ae0-4d70-8d94-7a3bfa8186aa}, !- Day Schedule Name
  Yes,                                    !- Apply Sunday
  Yes,                                    !- Apply Monday
  Yes,                                    !- Apply Tuesday
  Yes,                                    !- Apply Wednesday
  Yes,                                    !- Apply Thursday
  Yes,                                    !- Apply Friday
  Yes,                                    !- Apply Saturday
  DateRange,                              !- Date Specification Type
  12,                                     !- Start Month
  1,                                      !- Start Day
  12,                                     !- End Month
  31;                                     !- End Day

OS:Schedule:Day,
  {b84369a0-1ae0-4d70-8d94-7a3bfa8186aa}, !- Handle
  heating setpoint day 4,                 !- Name
  {a52fb630-84d5-49dc-8494-7b4b1bb1738a}, !- Schedule Type Limits Name
  ,                                       !- Interpolate to Timestep
  24,                                     !- Hour 1
  0,                                      !- Minute 1
  24.4444444444444;                       !- Value Until Time 1

OS:Schedule:Ruleset,
  {49a54917-f025-4ebd-b6aa-248a98711ee1}, !- Handle
  cooling setpoint,                       !- Name
  {a52fb630-84d5-49dc-8494-7b4b1bb1738a}, !- Schedule Type Limits Name
  {40a462ca-630e-4dfa-a229-f904eedd99dd}; !- Default Day Schedule Name

OS:Schedule:Day,
  {40a462ca-630e-4dfa-a229-f904eedd99dd}, !- Handle
  cooling setpoint default day,           !- Name
  {a52fb630-84d5-49dc-8494-7b4b1bb1738a}, !- Schedule Type Limits Name
  ,                                       !- Interpolate to Timestep
  24,                                     !- Hour 1
  0,                                      !- Minute 1
  0;                                      !- Value Until Time 1

OS:Schedule:Rule,
  {6d323342-4ae3-41ed-9e11-f0fa2e4b286b}, !- Handle
  cooling setpoint allday rule,           !- Name
  {49a54917-f025-4ebd-b6aa-248a98711ee1}, !- Schedule Ruleset Name
  4,                                      !- Rule Order
  {4b76ffee-32bb-447a-8aae-18e25cd53104}, !- Day Schedule Name
  Yes,                                    !- Apply Sunday
  Yes,                                    !- Apply Monday
  Yes,                                    !- Apply Tuesday
  Yes,                                    !- Apply Wednesday
  Yes,                                    !- Apply Thursday
  Yes,                                    !- Apply Friday
  Yes,                                    !- Apply Saturday
  DateRange,                              !- Date Specification Type
  1,                                      !- Start Month
  1,                                      !- Start Day
  3,                                      !- End Month
  31;                                     !- End Day

OS:Schedule:Day,
  {4b76ffee-32bb-447a-8aae-18e25cd53104}, !- Handle
  cooling setpoint day,                   !- Name
  {a52fb630-84d5-49dc-8494-7b4b1bb1738a}, !- Schedule Type Limits Name
  ,                                       !- Interpolate to Timestep
  24,                                     !- Hour 1
  0,                                      !- Minute 1
  24.4444444444444;                       !- Value Until Time 1

OS:Schedule:Rule,
  {eb5c96fe-a1b9-4b8c-81b3-b14d1645c52d}, !- Handle
  cooling setpoint allday rule 1,         !- Name
  {49a54917-f025-4ebd-b6aa-248a98711ee1}, !- Schedule Ruleset Name
  3,                                      !- Rule Order
  {8ad8ce8a-a368-4c2f-8fb6-05a77e43d53b}, !- Day Schedule Name
  Yes,                                    !- Apply Sunday
  Yes,                                    !- Apply Monday
  Yes,                                    !- Apply Tuesday
  Yes,                                    !- Apply Wednesday
  Yes,                                    !- Apply Thursday
  Yes,                                    !- Apply Friday
  Yes,                                    !- Apply Saturday
  DateRange,                              !- Date Specification Type
  4,                                      !- Start Month
  1,                                      !- Start Day
  5,                                      !- End Month
  31;                                     !- End Day

OS:Schedule:Day,
  {8ad8ce8a-a368-4c2f-8fb6-05a77e43d53b}, !- Handle
  cooling setpoint day 1,                 !- Name
  {a52fb630-84d5-49dc-8494-7b4b1bb1738a}, !- Schedule Type Limits Name
  ,                                       !- Interpolate to Timestep
  3,                                      !- Hour 1
  0,                                      !- Minute 1
  20.8333333333333,                       !- Value Until Time 1
  18,                                     !- Hour 2
  0,                                      !- Minute 2
  22.2222222222222,                       !- Value Until Time 2
  24,                                     !- Hour 3
  0,                                      !- Minute 3
  20.8333333333333;                       !- Value Until Time 3

OS:Schedule:Rule,
  {19643f73-22ba-4990-96af-6c5ae27f46cd}, !- Handle
  cooling setpoint allday rule 2,         !- Name
  {49a54917-f025-4ebd-b6aa-248a98711ee1}, !- Schedule Ruleset Name
  2,                                      !- Rule Order
  {368c4420-2db0-42ed-ab55-038965ec89ec}, !- Day Schedule Name
  Yes,                                    !- Apply Sunday
  Yes,                                    !- Apply Monday
  Yes,                                    !- Apply Tuesday
  Yes,                                    !- Apply Wednesday
  Yes,                                    !- Apply Thursday
  Yes,                                    !- Apply Friday
  Yes,                                    !- Apply Saturday
  DateRange,                              !- Date Specification Type
  6,                                      !- Start Month
  1,                                      !- Start Day
  10,                                     !- End Month
  31;                                     !- End Day

OS:Schedule:Day,
  {368c4420-2db0-42ed-ab55-038965ec89ec}, !- Handle
  cooling setpoint day 2,                 !- Name
  {a52fb630-84d5-49dc-8494-7b4b1bb1738a}, !- Schedule Type Limits Name
  ,                                       !- Interpolate to Timestep
  3,                                      !- Hour 1
  0,                                      !- Minute 1
  17.2222222222222,                       !- Value Until Time 1
  18,                                     !- Hour 2
  0,                                      !- Minute 2
  20,                                     !- Value Until Time 2
  24,                                     !- Hour 3
  0,                                      !- Minute 3
  17.2222222222222;                       !- Value Until Time 3

OS:Schedule:Rule,
  {b19e5176-4336-49c5-8370-1110aa1c4814}, !- Handle
  cooling setpoint allday rule 3,         !- Name
  {49a54917-f025-4ebd-b6aa-248a98711ee1}, !- Schedule Ruleset Name
  1,                                      !- Rule Order
  {d9b8cd29-21e1-4e67-8014-58e17b0c541f}, !- Day Schedule Name
  Yes,                                    !- Apply Sunday
  Yes,                                    !- Apply Monday
  Yes,                                    !- Apply Tuesday
  Yes,                                    !- Apply Wednesday
  Yes,                                    !- Apply Thursday
  Yes,                                    !- Apply Friday
  Yes,                                    !- Apply Saturday