
Version,
  25.1;                                   !- Version Identifier

Timestep,
  1;                                      !- Number of Timesteps per Hour

LifeCycleCost:Parameters,
  Life Cycle Cost Parameters,             !- Name
  EndOfYear,                              !- Discounting Convention
  ConstantDollar,                         !- Inflation Approach
  0.03,                                   !- Real Discount Rate
  ,                                       !- Nominal Discount Rate
  ,                                       !- Inflation
  ,                                       !- Base Date Month
  2011,                                   !- Base Date Year
  ,                                       !- Service Date Month
  2011,                                   !- Service Date Year
  25,                                     !- Length of Study Period in Years
  ,                                       !- Tax rate
  None;                                   !- Depreciation Method

LifeCycleCost:UsePriceEscalation,
  U.S. Avg  Commercial-Electricity,       !- Name
  Electricity,                            !- Resource
  2011,                                   !- Escalation Start Year
  January,                                !- Escalation Start Month
  0.9838,                                 !- Year Escalation 1
  0.9730,                                 !- Year Escalation 2
  0.9632,                                 !- Year Escalation 3
  0.9611,                                 !- Year Escalation 4
  0.9571,                                 !- Year Escalation 5
  0.9553,                                 !- Year Escalation 6
  0.9539,                                 !- Year Escalation 7
  0.9521,                                 !- Year Escalation 8
  0.9546,                                 !- Year Escalation 9
  0.9550,                                 !- Year Escalation 10
  0.9553,                                 !- Year Escalation 11
  0.9564,                                 !- Year Escalation 12
  0.9575,                                 !- Year Escalation 13
  0.9596,                                 !- Year Escalation 14
  0.9618,                                 !- Year Escalation 15
  0.9614,                                 !- Year Escalation 16
  0.9618,                                 !- Year Escalation 17
  0.9618,                                 !- Year Escalation 18
  0.9593,                                 !- Year Escalation 19
  0.9589,                                 !- Year Escalation 20
  0.9607,                                 !- Year Escalation 21
  0.9625,                                 !- Year Escalation 22
  0.9650,                                 !- Year Escalation 23
  0.9708,                                 !- Year Escalation 24
  0.9751,                                 !- Year Escalation 25
  0.9762,                                 !- Year Escalation 26
  0.9766,                                 !- Year Escalation 27
  0.9766,                                 !- Year Escalation 28
  0.9769,                                 !- Year Escalation 29
  0.9773;                                 !- Year Escalation 30

LifeCycleCost:UsePriceEscalation,
  U.S. Avg  Commercial-Distillate Oil,    !- Name
  FuelOilNo1,                             !- Resource
  2011,                                   !- Escalation Start Year
  January,                                !- Escalation Start Month
  0.9714,                                 !- Year Escalation 1
  0.9730,                                 !- Year Escalation 2
  0.9942,                                 !- Year Escalation 3
  1.0164,                                 !- Year Escalation 4
  1.0541,                                 !- Year Escalation 5
  1.0928,                                 !- Year Escalation 6
  1.1267,                                 !- Year Escalation 7
  1.1580,                                 !- Year Escalation 8
  1.1792,                                 !- Year Escalation 9
  1.1967,                                 !- Year Escalation 10
  1.2200,                                 !- Year Escalation 11
  1.2333,                                 !- Year Escalation 12
  1.2566,                                 !- Year Escalation 13
  1.2709,                                 !- Year Escalation 14
  1.2826,                                 !- Year Escalation 15
  1.2985,                                 !- Year Escalation 16
  1.3102,                                 !- Year Escalation 17
  1.3250,                                 !- Year Escalation 18
  1.3261,                                 !- Year Escalation 19
  1.3282,                                 !- Year Escalation 20
  1.3324,                                 !- Year Escalation 21
  1.3356,                                 !- Year Escalation 22
  1.3431,                                 !- Year Escalation 23
  1.3510,                                 !- Year Escalation 24
  1.3568,                                 !- Year Escalation 25
  1.3606,                                 !- Year Escalation 26
  1.3637,                                 !- Year Escalation 27
  1.3674,                                 !- Year Escalation 28
  1.3706,                                 !- Year Escalation 29
  1.3743;                                 !- Year Escalation 30

LifeCycleCost:UsePriceEscalation,
  U.S. Avg  Commercial-Residual Oil,      !- Name
  FuelOilNo2,                             !- Resource
  2011,                                   !- Escalation Start Year
  January,                                !- Escalation Start Month
  0.8469,                                 !- Year Escalation 1
  0.8257,                                 !- Year Escalation 2
  0.8681,                                 !- Year Escalation 3
  0.8988,                                 !- Year Escalation 4
  0.9289,                                 !- Year Escalation 5
  0.9604,                                 !- Year Escalation 6
  0.9897,                                 !- Year Escalation 7
  1.0075,                                 !- Year Escalation 8
  1.0314,                                 !- Year Escalation 9
  1.0554,                                 !- Year Escalation 10
  1.0861,                                 !- Year Escalation 11
  1.1278,                                 !- Year Escalation 12
  1.1497,                                 !- Year Escalation 13
  1.1620,                                 !- Year Escalation 14
  1.1743,                                 !- Year Escalation 15
  1.1852,                                 !- Year Escalation 16
  1.1948,                                 !- Year Escalation 17
  1.2037,                                 !- Year Escalation 18
  1.2071,                                 !- Year Escalation 19
  1.2119,                                 !- Year Escalation 20
  1.2139,                                 !- Year Escalation 21
  1.2194,                                 !- Year Escalation 22
  1.2276,                                 !- Year Escalation 23
  1.2365,                                 !- Year Escalation 24
  1.2420,                                 !- Year Escalation 25
  1.2461,                                 !- Year Escalation 26
  1.2509,                                 !- Year Escalation 27
  1.2550,                                 !- Year Escalation 28
  1.2591,                                 !- Year Escalation 29
  1.2638;                                 !- Year Escalation 30

LifeCycleCost:UsePriceEscalation,
  U.S. Avg  Commercial-Natural gas,       !- Name
  NaturalGas,                             !- Resource
  2011,                                   !- Escalation Start Year
  January,                                !- Escalation Start Month
  0.9823,                                 !- Year Escalation 1
  0.9557,                                 !- Year Escalation 2
  0.9279,                                 !- Year Escalation 3
  0.9257,                                 !- Year Escalation 4
  0.9346,                                 !- Year Escalation 5
  0.9412,                                 !- Year Escalation 6
  0.9512,                                 !- Year Escalation 7
  0.9645,                                 !- Year Escalation 8
  0.9856,                                 !- Year Escalation 9
  1.0067,                                 !- Year Escalation 10
  1.0222,                                 !- Year Escalation 11
  1.0410,                                 !- Year Escalation 12
  1.0610,                                 !- Year Escalation 13
  1.0787,                                 !- Year Escalation 14
  1.0942,                                 !- Year Escalation 15
  1.1098,                                 !- Year Escalation 16
  1.1220,                                 !- Year Escalation 17
  1.1308,                                 !- Year Escalation 18
  1.1386,                                 !- Year Escalation 19
  1.1486,                                 !- Year Escalation 20
  1.1619,                                 !- Year Escalation 21
  1.1763,                                 !- Year Escalation 22
  1.1918,                                 !- Year Escalation 23
  1.2118,                                 !- Year Escalation 24
  1.2284,                                 !- Year Escalation 25
  1.2439,                                 !- Year Escalation 26
  1.2605,                                 !- Year Escalation 27
  1.2772,                                 !- Year Escalation 28
  1.2938,                                 !- Year Escalation 29
  1.3115;                                 !- Year Escalation 30

LifeCycleCost:UsePriceEscalation,
  U.S. Avg  Commercial-Coal,              !- Name
  Coal,                                   !- Resource
  2011,                                   !- Escalation Start Year
  January,                                !- Escalation Start Month
  0.9970,                                 !- Year Escalation 1
  1.0089,                                 !- Year Escalation 2
  1.0089,                                 !- Year Escalation 3
  0.9941,                                 !- Year Escalation 4
  0.9941,                                 !- Year Escalation 5
  1.0000,                                 !- Year Escalation 6
  1.0030,                                 !- Year Escalation 7
  1.0059,                                 !- Year Escalation 8
  1.0089,                                 !- Year Escalation 9
  1.0119,                                 !- Year Escalation 10
  1.0148,                                 !- Year Escalation 11
  1.0178,                                 !- Year Escalation 12
  1.0208,                                 !- Year Escalation 13
  1.0267,                                 !- Year Escalation 14
  1.0297,                                 !- Year Escalation 15
  1.0356,                                 !- Year Escalation 16
  1.0415,                                 !- Year Escalation 17
  1.0534,                                 !- Year Escalation 18
  1.0564,                                 !- Year Escalation 19
  1.0593,                                 !- Year Escalation 20
  1.0653,                                 !- Year Escalation 21
  1.0712,                                 !- Year Escalation 22
  1.0742,                                 !- Year Escalation 23
  1.0801,                                 !- Year Escalation 24
  1.0831,                                 !- Year Escalation 25
  1.0831,                                 !- Year Escalation 26
  1.0861,                                 !- Year Escalation 27
  1.0890,                                 !- Year Escalation 28
  1.0920,                                 !- Year Escalation 29
  1.0950;                                 !- Year Escalation 30

Building,
  Building 1,                             !- Name
  ,                                       !- North Axis {deg}
  Suburbs,                                !- Terrain
  ,                                       !- Loads Convergence Tolerance Value {W}
  ,                                       !- Temperature Convergence Tolerance Value {deltaC}
  ,                                       !- Solar Distribution
  ,                                       !- Maximum Number of Warmup Days
  ;                                       !- Minimum Number of Warmup Days

Shading:Building:Detailed,
  Neighbor azimuth 0 distance 7.0,        !- Name
  ,                                       !- Transmittance Schedule Name
  ,                                       !- Number of Vertices
  -7.3625202, 9.4961202, 0,               !- X,Y,Z Vertex 1 {m}
  -7.3625202, 9.4961202, 2.4384,          !- X,Y,Z Vertex 2 {m}
  7.3625202, 9.4961202, 2.4384,           !- X,Y,Z Vertex 3 {m}
  7.3625202, 9.4961202, 0;                !- X,Y,Z Vertex 4 {m}

Shading:Building:Detailed,
  Neighbor azimuth 180 distance 7.0,      !- Name
  ,                                       !- Transmittance Schedule Name
  ,                                       !- Number of Vertices
  7.3625202, -9.4961202, 0,               !- X,Y,Z Vertex 1 {m}
  7.3625202, -9.4961202, 2.4384,          !- X,Y,Z Vertex 2 {m}
  -7.3625202, -9.4961202, 2.4384,         !- X,Y,Z Vertex 3 {m}
  -7.3625202, -9.4961202, 0;              !- X,Y,Z Vertex 4 {m}

Zone,
  conditioned space,                      !- Name
  ,                                       !- Direction of Relative North {deg}
  0,                                      !- X Origin {m}
  0,                                      !- Y Origin {m}
  0,                                      !- Z Origin {m}
  ,                                       !- Type
  1,                                      !- Multiplier
  ,                                       !- Ceiling Height {m}
  257.796571373568,                       !- Volume {m3}
  ,                                       !- Floor Area {m2}
  ,                                       !- Zone Inside Convection Algorithm
  ,                                       !- Zone Outside Convection Algorithm
  Yes;                                    !- Part of Total Floor Area

Space,
  conditioned space 1,                    !- Name
  conditioned space,                      !- Zone Name
  ,                                       !- Ceiling Height {m}
  257.796571373568,                       !- Volume {m3}
  ;                                       !- Floor Area {m2}

Shading:Zone:Detailed,
  Window1 overhangs,                      !- Name
  surface Window1,                        !- Base Surface Name
  ,                                       !- Transmittance Schedule Name
  ,                                       !- Number of Vertices
  7.3625202, -5.48146877142858, 1.3716,   !- X,Y,Z Vertex 1 {m}
  7.3625202, -7.6673202, 1.3716,          !- X,Y,Z Vertex 2 {m}
  7.9721202, -7.6673202, 1.3716,          !- X,Y,Z Vertex 3 {m}
  7.9721202, -5.48146877142858, 1.3716;   !- X,Y,Z Vertex 4 {m}

Shading:Zone:Detailed,
  Window2 overhangs,                      !- Name
  surface Window2,                        !- Base Surface Name
  ,                                       !- Transmittance Schedule Name
  ,                                       !- Number of Vertices
  -7.3625202, 3.37578677151424, 1.2192,   !- X,Y,Z Vertex 1 {m}
  -7.3625202, 5.82434677151424, 1.2192,   !- X,Y,Z Vertex 2 {m}
  -10.4105202, 5.82434677151424, 1.2192,  !- X,Y,Z Vertex 3 {m}
  -10.4105202, 3.37578677151424, 1.2192;  !- X,Y,Z Vertex 4 {m}

BuildingSurface:Detailed,
  Floor1,                                 !- Name
  Ceiling,                                !- Surface Type
  Floor1 construction,                    !- Construction Name
  conditioned space,                      !- Zone Name
  conditioned space 1,                    !- Space Name
  Adiabatic,                              !- Outside Boundary Condition
  ,                                       !- Outside Boundary Condition Object
  NoSun,                                  !- Sun Exposure
  NoWind,                                 !- Wind Exposure
  ,                                       !- View Factor to Ground
  ,                                       !- Number of Vertices
  5.14110055143838, -5.14110055143838, 0, !- X,Y,Z Vertex 1 {m}
  5.14110055143838, 5.14110055143838, 0,  !- X,Y,Z Vertex 2 {m}
  -5.14110055143838, 5.14110055143838, 0, !- X,Y,Z Vertex 3 {m}
  -5.14110055143838, -5.14110055143838, 0; !- X,Y,Z Vertex 4 {m}

BuildingSurface:Detailed,
  Slab1,                                  !- Name
  Floor,                                  !- Surface Type
  Slab1 construction,                     !- Construction Name
  conditioned space,                      !- Zone Name
  conditioned space 1,                    !- Space Name
  Foundation,                             !- Outside Boundary Condition
  Foundation Kiva 1,                      !- Outside Boundary Condition Object
  NoSun,                                  !- Sun Exposure
  NoWind,                                 !- Wind Exposure
  ,                                       !- View Factor to Ground
  ,                                       !- Number of Vertices
  -5.14110055143838, -5.14110055143838, 0, !- X,Y,Z Vertex 1 {m}
  -5.14110055143838, 5.14110055143838, 0, !- X,Y,Z Vertex 2 {m}
  5.14110055143838, 5.14110055143838, 0,  !- X,Y,Z Vertex 3 {m}
  5.14110055143838, -5.14110055143838, 0; !- X,Y,Z Vertex 4 {m}

SurfaceProperty:ExposedFoundationPerimeter,
  Slab1,                                  !- Surface Name
  TotalExposedPerimeter,                  !- Exposed Perimeter Calculation Method
  15.33144,                               !- Total Exposed Perimeter {m}
  ;                                       !- Exposed Perimeter Fraction {dimensionless}

BuildingSurface:Detailed,
  surface Door1,                          !- Name
  Wall,                                   !- Surface Type
  AdiabaticWallConstruction 1,            !- Construction Name
  conditioned space,                      !- Zone Name
  conditioned space 1,                    !- Space Name
  Outdoors,                               !- Outside Boundary Condition
  ,                                       !- Outside Boundary Condition Object
  SunExposed,                             !- Sun Exposure
  WindExposed,                            !- Wind Exposure
  ,                                       !- View Factor to Ground
  ,                                       !- Number of Vertices
  -7.3625202, 6.44772932724629, -0.000847844267953146, !- X,Y,Z Vertex 1 {m}
  -7.3625202, 6.44772932724629, 2.03386384426795, !- X,Y,Z Vertex 2 {m}
  -7.3625202, 7.36336804426795, 2.03386384426795, !- X,Y,Z Vertex 3 {m}
  -7.3625202, 7.36336804426795, -0.000847844267953146; !- X,Y,Z Vertex 4 {m}

FenestrationSurface:Detailed,
  Door1,                                  !- Name
  Door,                                   !- Surface Type
  Door,                                   !- Construction Name
  surface Door1,                          !- Building Surface Name
  ,                                       !- Outside Boundary Condition Object
  ,                                       !- View Factor to Ground
  ,                                       !- Frame and Divider Name
  ,                                       !- Multiplier
  ,                                       !- Number of Vertices
  -7.3625202, 6.44857717151424, 0,        !- X,Y,Z Vertex 1 {m}
  -7.3625202, 6.44857717151424, 2.033016, !- X,Y,Z Vertex 2 {m}
  -7.3625202, 7.3625202, 2.033016,        !- X,Y,Z Vertex 3 {m}
  -7.3625202, 7.3625202, 0;               !- X,Y,Z Vertex 4 {m}

BuildingSurface:Detailed,
  surface Window1,                        !- Name
  Wall,                                   !- Surface Type
  AdiabaticWallConstruction,              !- Construction Name
  conditioned space,                      !- Zone Name
  conditioned space 1,                    !- Space Name
  Outdoors,                               !- Outside Boundary Condition
  ,                                       !- Outside Boundary Condition Object
  SunExposed,                             !- Sun Exposure
  WindExposed,                            !- Wind Exposure
  ,                                       !- View Factor to Ground
  ,                                       !- Number of Vertices
  7.3625202, -5.78532357105695, -0.000945200371626986, !- X,Y,Z Vertex 1 {m}
  7.3625202, -5.78532357105695, 1.06774520037163, !- X,Y,Z Vertex 2 {m}
  7.3625202, -7.36346540037163, 1.06774520037163, !- X,Y,Z Vertex 3 {m}
  7.3625202, -7.36346540037163, -0.000945200371626986; !- X,Y,Z Vertex 4 {m}

FenestrationSurface:Detailed,
  Window1,                                !- Name
  Window,                                 !- Surface Type
  WindowConstruction,                     !- Construction Name
  surface Window1,                        !- Building Surface Name
  ,                                       !- Outside Boundary Condition Object
  ,                                       !- View Factor to Ground
  ,                                       !- Frame and Divider Name
  ,                                       !- Multiplier
  ,                                       !- Number of Vertices
  7.3625202, -5.78626877142857, 0,        !- X,Y,Z Vertex 1 {m}
  7.3625202, -5.78626877142857, 1.0668,   !- X,Y,Z Vertex 2 {m}
  7.3625202, -7.3625202, 1.0668,          !- X,Y,Z Vertex 3 {m}
  7.3625202, -7.3625202, 0;               !- X,Y,Z Vertex 4 {m}

SurfaceProperty:IncidentSolarMultiplier,
  Window1,                                !- Surface Name
  1,                                      !- Incident Solar Multiplier {dimensionless}
  trans schedule winter=0.85 summer=0.7;  !- Incident Solar Multiplier Schedule Name

ScheduleTypeLimits,
  Fractional,                             !- Name
  0,                                      !- Lower Limit Value {BasedOnField A3}
  1,                                      !- Upper Limit Value {BasedOnField A3}
  Continuous;                             !- Numeric Type

Schedule:Day:Interval,
  trans schedule winter=0.85 summer=0.7 day, !- Name
  Fractional,                             !- Schedule Type Limits Name
  No,                                     !- Interpolate to Timestep
  24:00,                                  !- Time 1 {hh:mm}
  0.85;                                   !- Value Until Time 1

Schedule:Day:Interval,
  trans schedule winter=0.85 summer=0.7 day 1, !- Name
  Fractional,                             !- Schedule Type Limits Name
  No,                                     !- Interpolate to Timestep
  24:00,                                  !- Time 1 {hh:mm}
  0.7;                                    !- Value Until Time 1

Schedule:Week:Daily,
  trans schedule winter=0.85 summer=0.7 Week Rule - Jan1-Apr28, !- Name
  trans schedule winter=0.85 summer=0.7 day, !- Sunday Schedule:Day Name
  trans schedule winter=0.85 summer=0.7 day, !- Monday Schedule:Day Name
  trans schedule winter=0.85 summer=0.7 day, !- Tuesday Schedule:Day Name
  trans schedule winter=0.85 summer=0.7 day, !- Wednesday Schedule:Day Name
  trans schedule winter=0.85 summer=0.7 day, !- Thursday Schedule:Day Name
  trans schedule winter=0.85 summer=0.7 day, !- Friday Schedule:Day Name
  trans schedule winter=0.85 summer=0.7 day, !- Saturday Schedule:Day Name
  trans schedule winter=0.85 summer=0.7 default day, !- Holiday Schedule:Day Name
  trans schedule winter=0.85 summer=0.7 default day, !- SummerDesignDay Schedule:Day Name
  trans schedule winter=0.85 summer=0.7 default day, !- WinterDesignDay Schedule:Day Name
  trans schedule winter=0.85 summer=0.7 default day, !- CustomDay1 Schedule:Day Name
  trans schedule winter=0.85 summer=0.7 default day; !- CustomDay2 Schedule:Day Name

Schedule:Week:Daily,
  trans schedule winter=0.85 summer=0.7 Week Rule - Apr29-May5, !- Name
  trans schedule winter=0.85 summer=0.7 day, !- Sunday Schedule:Day Name
  trans schedule winter=0.85 summer=0.7 day, !- Monday Schedule:Day Name
  trans schedule winter=0.85 summer=0.7 day 1, !- Tuesday Schedule:Day Name
  trans schedule winter=0.85 summer=0.7 day 1, !- Wednesday Schedule:Day Name
  trans schedule winter=0.85 summer=0.7 day 1, !- Thursday Schedule:Day Name
  trans schedule winter=0.85 summer=0.7 day 1, !- Friday Schedule:Day Name
  trans schedule winter=0.85 summer=0.7 day 1, !- Saturday Schedule:Day Name
  trans schedule winter=0.85 summer=0.7 default day, !- Holiday Schedule:Day Name
  trans schedule winter=0.85 summer=0.7 default day, !- SummerDesignDay Schedule:Day Name
  trans schedule winter=0.85 summer=0.7 default day, !- WinterDesignDay Schedule:Day Name
  trans schedule winter=0.85 summer=0.7 default day, !- CustomDay1 Schedule:Day Name
  trans schedule winter=0.85 summer=0.7 default day; !- CustomDay2 Schedule:Day Name

Schedule:Day:Interval,
  trans schedule winter=0.85 summer=0.7 day 2, !- Name
  Fractional,                             !- Schedule Type Limits Name
  No,                                     !- Interpolate to Timestep
  24:00,                                  !- Time 1 {hh:mm}
  0.85;                                   !- Value Until Time 1

Schedule:Week:Daily,
  trans schedule winter=0.85 summer=0.7 Week Rule - May6-Oct27, !- Name
  trans schedule winter=0.85 summer=0.7 day 1, !- Sunday Schedule:Day Name
  trans schedule winter=0.85 summer=0.7 day 1, !- Monday Schedule:Day Name
  trans schedule winter=0.85 summer=0.7 day 1, !- Tuesday Schedule:Day Name
  trans schedule winter=0.85 summer=0.7 day 1, !- Wednesday Schedule:Day Name
  trans schedule winter=0.85 summer=0.7 day 1, !- Thursday Schedule:Day Name
  trans schedule winter=0.85 summer=0.7 day 1, !- Friday Schedule:Day Name
  trans schedule winter=0.85 summer=0.7 day 1, !- Saturday Schedule:Day Name
  trans schedule winter=0.85 summer=0.7 default day, !- Holiday Schedule:Day Name
  trans schedule winter=0.85 summer=0.7 default day, !- SummerDesignDay Schedule:Day Name
  trans schedule winter=0.85 summer=0.7 default day, !- WinterDesignDay Schedule:Day Name
  trans schedule winter=0.85 summer=0.7 default day, !- CustomDay1 Schedule:Day Name
  trans schedule winter=0.85 summer=0.7 default day; !- CustomDay2 Schedule:Day Name

Schedule:Week:Daily,
  trans schedule winter=0.85 summer=0.7 Week Rule - Oct28-Nov3, !- Name
  trans schedule winter=0.85 summer=0.7 day 1, !- Sunday Schedule:Day Name
  trans schedule winter=0.85 summer=0.7 day 1, !- Monday Schedule:Day Name
  trans schedule winter=0.85 summer=0.7 day 1, !- Tuesday Schedule:Day Name
  trans schedule winter=0.85 summer=0.7 day 1, !- Wednesday Schedule:Day Name
  trans schedule winter=0.85 summer=0.7 day 2, !- Thursday Schedule:Day Name
  trans schedule winter=0.85 summer=0.7 day 2, !- Friday Schedule:Day Name
  trans schedule winter=0.85 summer=0.7 day 2, !- Saturday Schedule:Day Name
  trans schedule winter=0.85 summer=0.7 default day, !- Holiday Schedule:Day Name
  trans schedule winter=0.85 summer=0.7 default day, !- SummerDesignDay Schedule:Day Name
  trans schedule winter=0.85 summer=0.7 default day, !- WinterDesignDay Schedule:Day Name
  trans schedule winter=0.85 summer=0.7 default day, !- CustomDay1 Schedule:Day Name
  trans schedule winter=0.85 summer=0.7 default day; !- CustomDay2 Schedule:Day Name

Schedule:Week:Daily,
  trans schedule winter=0.85 summer=0.7 Week Rule - Nov4-Dec31, !- Name
  trans schedule winter=0.85 summer=0.7 day 2, !- Sunday Schedule:Day Name
  trans schedule winter=0.85 summer=0.7 day 2, !- Monday Schedule:Day Name
  trans schedule winter=0.85 summer=0.7 day 2, !- Tuesday Schedule:Day Name
  trans schedule winter=0.85 summer=0.7 day 2, !- Wednesday Schedule:Day Name
  trans schedule winter=0.85 summer=0.7 day 2, !- Thursday Schedule:Day Name
  trans schedule winter=0.85 summer=0.7 day 2, !- Friday Schedule:Day Name
  trans schedule winter=0.85 summer=0.7 day 2, !- Saturday Schedule:Day Name
  trans schedule winter=0.85 summer=0.7 default day, !- Holiday Schedule:Day Name
  trans schedule winter=0.85 summer=0.7 default day, !- SummerDesignDay Schedule:Day Name
  trans schedule winter=0.85 summer=0.7 default day, !- WinterDesignDay Schedule:Day Name
  trans schedule winter=0.85 summer=0.7 default day, !- CustomDay1 Schedule:Day Name
  trans schedule winter=0.85 summer=0.7 default day; !- CustomDay2 Schedule:Day Name

Schedule:Year,
  trans schedule winter=0.85 summer=0.7,  !- Name
  Fractional,                             !- Schedule Type Limits Name
  trans schedule winter=0.85 summer=0.7 Week Rule - Jan1-Apr28, !- Schedule:Week Name 1
  1,                                      !- Start Month 1
  1,                                      !- Start Day 1
  4,                                      !- End Month 1
  28,                                     !- End Day 1
  trans schedule winter=0.85 summer=0.7 Week Rule - Apr29-May5, !- Schedule:Week Name 2
  4,                                      !- Start Month 2
  29,                                     !- Start Day 2
  5,                                      !- End Month 2
  5,                                      !- End Day 2
  trans schedule winter=0.85 summer=0.7 Week Rule - May6-Oct27, !- Schedule:Week Name 3
  5,                                      !- Start Month 3
  6,                                      !- Start Day 3
  10,                                     !- End Month 3
  27,                                     !- End Day 3
  trans schedule winter=0.85 summer=0.7 Week Rule - Oct28-Nov3, !- Schedule:Week Name 4
  10,                                     !- Start Month 4
  28,                                     !- Start Day 4
  11,                                     !- End Month 4
  3,                                      !- End Day 4
  trans schedule winter=0.85 summer=0.7 Week Rule - Nov4-Dec31, !- Schedule:Week Name 5