
OS:Version,
  {644f17d3-25c9-4c9b-934f-0313ff1afdba}, !- Handle
  3.10.0;                                 !- Version Identifier

OS:SimulationControl,
  {d5faf12d-1094-4542-bf76-41348ff64b77}, !- Handle
  ,                                       !- Do Zone Sizing Calculation
  ,                                       !- Do System Sizing Calculation
  ,                                       !- Do Plant Sizing Calculation
  No;                                     !- Run Simulation for Sizing Periods

OS:Timestep,
  {ab8d9d3f-3b8d-4ad1-a3c9-cf6123df4c0b}, !- Handle
  1;                                      !- Number of Timesteps per Hour

OS:ShadowCalculation,
  {2388d79e-0262-4f2d-81ed-0d0e6daddc4d}, !- Handle
  PolygonClipping,                        !- Shading Calculation Method
  ,                                       !- Shading Calculation Update Frequency Method
  20,                                     !- Shading Calculation Update Frequency
  200,                                    !- Maximum Figures in Shadow Overlap Calculations
  ,                                       !- Polygon Clipping Algorithm
  512,                                    !- Pixel Counting Resolution
  ,                                       !- Sky Diffuse Modeling Algorithm
  No,                                     !- Output External Shading Calculation Results
  No,                                     !- Disable Self-Shading Within Shading Zone Groups
  No;                                     !- Disable Self-Shading From Shading Zone Groups to Other Zones

OS:SurfaceConvectionAlgorithm:Outside,
  {a05a2b16-7e8a-42c2-92a9-cc417508836e}, !- Handle
  DOE-2;                                  !- Algorithm

OS:SurfaceConvectionAlgorithm:Inside,
  {956427f6-3d49-487d-a8f6-2db20584c826}, !- Handle
  TARP;                                   !- Algorithm

OS:ZoneCapacitanceMultiplier:ResearchSpecial,
  {10ba87b2-15fe-4af1-8c74-04a8be51af35}, !- Handle
  7,                                      !- Temperature Capacity Multiplier
  15,                                     !- Humidity Capacity Multiplier
  ;                                       !- Carbon Dioxide Capacity Multiplier

OS:ConvergenceLimits,
  {85da1eb5-e721-4cfe-9f3f-36ca4fff3fa3}, !- Handle
  0;                                      !- Minimum System Timestep {minutes}

OS:RunPeriod,
  {3a23fcf0-d16a-448b-a76b-42de462a4da5}, !- Handle
  Run Period 1,                           !- Name
  1,                                      !- Begin Month
  1,                                      !- Begin Day of Month
  12,                                     !- End Month
  31,                                     !- End Day of Month
  ,                                       !- Use Weather File Holidays and Special Days
  ,                                       !- Use Weather File Daylight Saving Period
  ,                                       !- Apply Weekend Holiday Rule
  ,                                       !- Use Weather File Rain Indicators
  ,                                       !- Use Weather File Snow Indicators
  ;                                       !- Number of Times Runperiod to be Repeated

OS:PerformancePrecisionTradeoffs,
  {66dd974e-0068-43b9-9c6a-d41bd9909d32}, !- Handle
  ,                                       !- Use Coil Direct Solutions
  CarrollMRT;                             !- Zone Radiant Exchange Algorithm

OS:WeatherFile,
  {c32b6046-2b06-47b1-8b8f-6938deb166cd}, !- Handle
  Buffalo Niagara Intl Ap,                !- City
  NY,                                     !- State Province Region
  USA,                                    !- Country
  TMY3,                                   !- Data Source
  725280,                                 !- WMO Number
  42.93,                                  !- Latitude {deg}
  -78.73,                                 !- Longitude {deg}
  -5,                                     !- Time Zone {hr}
  215,                                    !- Elevation {m}
  /Users/nmoore/github/urbanopt-example-geojson-project/example_project/weather/USA_NY_Buffalo-Greater.Buffalo.Intl.AP.725280_TMY3.epw, !- Url
  6B50E0FF,                               !- Checksum
  ,                                       !- Start Date Actual Year
  Sunday;                                 !- Start Day of Week

OS:YearDescription,
  {160a0e3f-a279-429e-b099-c788b2c56e52}, !- Handle
  2007,                                   !- Calendar Year
  ,                                       !- Day of Week for Start Day
  ;                                       !- Is Leap Year

OS:Site,
  {7d2acbc4-a9a5-4a18-93ec-e254102c847d}, !- Handle
  Buffalo Niagara Intl Ap_NY,             !- Name
  42.93,                                  !- Latitude {deg}
  -78.73,                                 !- Longitude {deg}
  -5,                                     !- Time Zone {hr}
  215,                                    !- Elevation {m}
  Suburbs,                                !- Terrain
  Yes;                                    !- Keep Site Location Information

OS:RunPeriodControl:DaylightSavingTime,
  {42306a74-aecd-4eac-9482-c537d483ca60}, !- Handle
  Mar 12,                                 !- Start Date
  Nov 5;                                  !- End Date

OS:Site:GroundTemperature:Shallow,
  {75777fc2-6e92-485b-bdc2-72bc56da5228}, !- Handle
  4.30207395723828,                       !- January Surface Ground Temperature {C}
  2.29327249652502,                       !- February Surface Ground Temperature {C}
  2.13240047156047,                       !- March Surface Ground Temperature {C}
  3.08567940719286,                       !- April Surface Ground Temperature {C}
  6.91256312497526,                       !- May Surface Ground Temperature {C}
  10.7216195949507,                       !- June Surface Ground Temperature {C}
  14.0238679822574,                       !- July Surface Ground Temperature {C}
  16.1157611184724,                       !- August Surface Ground Temperature {C}
  16.2934789303462,                       !- September Surface Ground Temperature {C}
  14.5920754632847,                       !- October Surface Ground Temperature {C}
  11.374036348653,                        !- November Surface Ground Temperature {C}
  7.68182621661674;                       !- December Surface Ground Temperature {C}

OS:ThermalZone,
  {747e3f9f-753e-4286-85d4-4800a9bfe2af}, !- Handle
  conditioned space,                      !- Name
  1,                                      !- Multiplier
  ,                                       !- Ceiling Height {m}
  692.06373070848,                        !- Volume {m3}
  ,                                       !- Floor Area {m2}
  ,                                       !- Zone Inside Convection Algorithm
  ,                                       !- Zone Outside Convection Algorithm
  ,                                       !- Zone Conditioning Equipment List Name
  {0019448d-d4cf-4815-b856-300376af911a}, !- Zone Air Inlet Port List
  {9e070739-dc57-4389-84aa-7590b9e04ba6}, !- Zone Air Exhaust Port List
  {e1f6cd07-0a10-42f7-984d-33eda17f7a9f}, !- Zone Air Node Name
  {ee2544f2-f652-4041-8e6a-d5e648f50b9f}, !- Zone Return Air Port List
  ,                                       !- Primary Daylighting Control Name
  ,                                       !- Fraction of Zone Controlled by Primary Daylighting Control
  ,                                       !- Secondary Daylighting Control Name
  ,                                       !- Fraction of Zone Controlled by Secondary Daylighting Control
  ,                                       !- Illuminance Map Name
  ,                                       !- Group Rendering Name
  {40779427-9ffd-4502-85ed-c59e9fcbdcdf}, !- Thermostat Name
  No;                                     !- Use Ideal Air Loads

OS:Node,
  {f97630b4-d97b-4dc0-9b2e-09dfe4d16437}, !- Handle
  Node 1,                                 !- Name
  {e1f6cd07-0a10-42f7-984d-33eda17f7a9f}, !- Inlet Port
  ;                                       !- Outlet Port

OS:Connection,
  {e1f6cd07-0a10-42f7-984d-33eda17f7a9f}, !- Handle
  {747e3f9f-753e-4286-85d4-4800a9bfe2af}, !- Source Object
  11,                                     !- Outlet Port
  {f97630b4-d97b-4dc0-9b2e-09dfe4d16437}, !- Target Object
  2;                                      !- Inlet Port

OS:PortList,
  {0019448d-d4cf-4815-b856-300376af911a}, !- Handle
  {747e3f9f-753e-4286-85d4-4800a9bfe2af}, !- HVAC Component
  {6b3078e4-7188-4d69-90f9-117f48196f4a}; !- Port 1

OS:PortList,
  {9e070739-dc57-4389-84aa-7590b9e04ba6}, !- Handle
  {747e3f9f-753e-4286-85d4-4800a9bfe2af}; !- HVAC Component

OS:PortList,
  {ee2544f2-f652-4041-8e6a-d5e648f50b9f}, !- Handle
  {747e3f9f-753e-4286-85d4-4800a9bfe2af}, !- HVAC Component
  {005e438f-9d64-4dcb-96b1-e74544afd0a9}; !- Port 1

OS:Sizing:Zone,
  {b52e6c62-9454-43ec-bf7e-f876d84f5265}, !- Handle
  {747e3f9f-753e-4286-85d4-4800a9bfe2af}, !- Zone or ZoneList Name
  SupplyAirTemperature,                   !- Zone Cooling Design Supply Air Temperature Input Method
  14,                                     !- Zone Cooling Design Supply Air Temperature {C}
  11.11,                                  !- Zone Cooling Design Supply Air Temperature Difference {deltaC}
  SupplyAirTemperature,                   !- Zone Heating Design Supply Air Temperature Input Method
  40,                                     !- Zone Heating Design Supply Air Temperature {C}
  11.11,                                  !- Zone Heating Design Supply Air Temperature Difference {deltaC}
  0.0085,                                 !- Zone Cooling Design Supply Air Humidity Ratio {kg-H2O/kg-air}
  0.008,                                  !- Zone Heating Design Supply Air Humidity Ratio {kg-H2O/kg-air}
  ,                                       !- Zone Heating Sizing Factor
  ,                                       !- Zone Cooling Sizing Factor
  DesignDay,                              !- Cooling Design Air Flow Method
  ,                                       !- Cooling Design Air Flow Rate {m3/s}
  ,                                       !- Cooling Minimum Air Flow per Zone Floor Area {m3/s-m2}
  ,                                       !- Cooling Minimum Air Flow {m3/s}
  ,                                       !- Cooling Minimum Air Flow Fraction
  DesignDay,                              !- Heating Design Air Flow Method
  ,                                       !- Heating Design Air Flow Rate {m3/s}
  ,                                       !- Heating Maximum Air Flow per Zone Floor Area {m3/s-m2}
  ,                                       !- Heating Maximum Air Flow {m3/s}
  ,                                       !- Heating Maximum Air Flow Fraction
  No,                                     !- Account for Dedicated Outdoor Air System
  NeutralSupplyAir,                       !- Dedicated Outdoor Air System Control Strategy
  autosize,                               !- Dedicated Outdoor Air Low Setpoint Temperature for Design {C}
  autosize,                               !- Dedicated Outdoor Air High Setpoint Temperature for Design {C}
  Sensible Load Only No Latent Load,      !- Zone Load Sizing Method
  HumidityRatioDifference,                !- Zone Latent Cooling Design Supply Air Humidity Ratio Input Method
  ,                                       !- Zone Dehumidification Design Supply Air Humidity Ratio {kgWater/kgDryAir}
  0.005,                                  !- Zone Cooling Design Supply Air Humidity Ratio Difference {kgWater/kgDryAir}
  HumidityRatioDifference,                !- Zone Latent Heating Design Supply Air Humidity Ratio Input Method
  ,                                       !- Zone Humidification Design Supply Air Humidity Ratio {kgWater/kgDryAir}
  0.005,                                  !- Zone Humidification Design Supply Air Humidity Ratio Difference {kgWater/kgDryAir}
  ,                                       !- Zone Humidistat Dehumidification Set Point Schedule Name
  ,                                       !- Zone Humidistat Humidification Set Point Schedule Name
  ,                                       !- Design Zone Air Distribution Effectiveness in Cooling Mode
  ,                                       !- Design Zone Air Distribution Effectiveness in Heating Mode
  ,                                       !- Design Zone Secondary Recirculation Fraction {dimensionless}
  ,                                       !- Design Minimum Zone Ventilation Efficiency {dimensionless}
  Coincident;                             !- Sizing Option

OS:ZoneHVAC:EquipmentList,
  {7afa2c42-4046-4194-b3be-f77e6e745618}, !- Handle
  Zone HVAC Equipment List 1,             !- Name
  {747e3f9f-753e-4286-85d4-4800a9bfe2af}, !- Thermal Zone
  ,                                       !- Load Distribution Scheme
  {3e7fa5dc-3dda-46ac-b19e-0c07bce5ee61}, !- Zone Equipment 1
  1,                                      !- Zone Equipment Cooling Sequence 1
  1,                                      !- Zone Equipment Heating or No-Load Sequence 1
  {92a8fb84-efab-40b1-9d11-74430ec517da}, !- Zone Equipment Sequential Cooling Fraction Schedule Name 1
  {ad56656c-5ee6-41c7-b0ba-57451896073c}; !- Zone Equipment Sequential Heating Fraction Schedule Name 1

OS:AdditionalProperties,
  {fbe8b399-561d-4636-b31e-5fdbc6c12a1c}, !- Handle
  {747e3f9f-753e-4286-85d4-4800a9bfe2af}, !- Object Name
  ObjectType,                             !- Feature Name 1
  String,                                 !- Feature Data Type 1
  conditioned space;                      !- Feature Value 1

OS:Space,
  {e598b0ec-c190-4465-b45c-d91e801ee0b3}, !- Handle
  conditioned space 1,                    !- Name
  ,                                       !- Space Type Name
  ,                                       !- Default Construction Set Name
  ,                                       !- Default Schedule Set Name
  ,                                       !- Direction of Relative North {deg}
  ,                                       !- X Origin {m}
  ,                                       !- Y Origin {m}
  ,                                       !- Z Origin {m}
  ,                                       !- Building Story Name
  {747e3f9f-753e-4286-85d4-4800a9bfe2af}, !- Thermal Zone Name
  ,                                       !- Part of Total Floor Area
  ,                                       !- Design Specification Outdoor Air Object Name
  ,                                       !- Building Unit Name
  692.06373070848;                        !- Volume {m3}

OS:Schedule:Ruleset,
  {aab7f00d-db7b-419f-9a39-f1fba6dc92e7}, !- Handle
  heating setpoint,                       !- Name
  {98f62f68-fbd5-46a8-8d30-03b3e9123ab7}, !- Schedule Type Limits Name
  {5786fde5-c139-4600-84b7-4594bc0a0e03}; !- Default Day Schedule Name

OS:Schedule:Day,
  {5786fde5-c139-4600-84b7-4594bc0a0e03}, !- Handle
  heating setpoint default day,           !- Name
  {98f62f68-fbd5-46a8-8d30-03b3e9123ab7}, !- Schedule Type Limits Name
  ,                                       !- Interpolate to Timestep
  24,                                     !- Hour 1
  0,                                      !- Minute 1
  0;                                      !- Value Until Time 1

OS:Schedule:Rule,
  {8db27609-f169-4e96-b68e-3bc9222d3201}, !- Handle
  heating setpoint allday rule,           !- Name
  {aab7f00d-db7b-419f-9a39-f1fba6dc92e7}, !- Schedule Ruleset Name
  0,                                      !- Rule Order
  {0e68e7fc-f4f4-426c-8327-8ea9b0fd9f84}, !- Day Schedule Name
  Yes,                                    !- Apply Sunday
  Yes,                                    !- Apply Monday
  Yes,                                    !- Apply Tuesday
  Yes,                                    !- Apply Wednesday
  Yes,                                    !- Apply Thursday
  Yes,                                    !- Apply Friday
  Yes,                                    !- Apply Saturday
  DateRange,                              !- Date Specification Type
  1,                                      !- Start Month
  1,                                      !- Start Day
  12,                                     !- End Month
  31;                                     !- End Day

OS:Schedule:Day,
  {0e68e7fc-f4f4-426c-8327-8ea9b0fd9f84}, !- Handle
  heating setpoint day,                   !- Name
  {98f62f68-fbd5-46a8-8d30-03b3e9123ab7}, !- Schedule Type Limits Name
  ,                                       !- Interpolate to Timestep
  24,                                     !- Hour 1
  0,                                      !- Minute 1
  20;                                     !- Value Until Time 1

OS:Schedule:Ruleset,
  {7a45c737-a544-45b7-a53d-f2cc957f3bcc}, !- Handle
  cooling setpoint,                       !- Name
  {98f62f68-fbd5-46a8-8d30-03b3e9123ab7}, !- Schedule Type Limits Name
  {4a1f1c90-8986-4209-8432-d58bcbe198b8}; !- Default Day Schedule Name

OS:Schedule:Day,
  {4a1f1c90-8986-4209-8432-d58bcbe198b8}, !- Handle
  cooling setpoint default day,           !- Name
  {98f62f68-fbd5-46a8-8d30-03b3e9123ab7}, !- Schedule Type Limits Name
  ,                                       !- Interpolate to Timestep
  24,                                     !- Hour 1
  0,                                      !- Minute 1
  0;                                      !- Value Until Time 1

OS:Schedule:Rule,
  {bfdcdf32-38d1-4a9a-84d3-aede218d6e66}, !- Handle
  cooling setpoint allday rule,           !- Name
  {7a45c737-a544-45b7-a53d-f2cc957f3bcc}, !- Schedule Ruleset Name
  0,                                      !- Rule Order
  {8ba46a7b-af35-4cb8-99fc-1c3f689a2ca8}, !- Day Schedule Name
  Yes,                                    !- Apply Sunday
  Yes,                                    !- Apply Monday
  Yes,                                    !- Apply Tuesday
  Yes,                                    !- Apply Wednesday
  Yes,                                    !- Apply Thursday
  Yes,                                    !- Apply Friday
  Yes,                                    !- Apply Saturday
  DateRange,                              !- Date Specification Type
  1,                                      !- Start Month
  1,                                      !- Start Day
  12,                                     !- End Month
  31;                                     !- End Day

OS:Schedule:Day,
  {8ba46a7b-af35-4cb8-99fc-1c3f689a2ca8}, !- Handle
  cooling setpoint day,                   !- Name
  {98f62f68-fbd5-46a8-8d30-03b3e9123ab7}, !- Schedule Type Limits Name
  ,                                       !- Interpolate to Timestep
  24,                                     !- Hour 1
  0,                                      !- Minute 1
  25.5555555555556;                       !- Value Until Time 1

OS:ThermostatSetpoint:DualSetpoint,
  {40779427-9ffd-4502-85ed-c59e9fcbdcdf}, !- Handle
  conditioned space temperature setpoint, !- Name
  {aab7f00d-db7b-419f-9a39-f1fba6dc92e7}, !- Heating Setpoint Temperature Schedule Name
  {7a45c737-a544-45b7-a53d-f2cc957f3bcc}, !- Cooling Setpoint Temperature Schedule Name
  0;                                      !- Temperature Difference Between Cutout And Setpoint {deltaC}

OS:ScheduleTypeLimits,
  {98f62f68-fbd5-46a8-8d30-03b3e9123ab7}, !- Handle
  Temperature,                            !- Name
  ,                                       !- Lower Limit Value
  ,                                       !- Upper Limit Value
  Continuous,                             !- Numeric Type
  Temperature;                            !- Unit Type

OS:Surface,
  {63a60021-42de-46d9-8ee4-9ce3aa717c59}, !- Handle
  Roof1,                                  !- Name
  RoofCeiling,                            !- Surface Type
  {290ff9e1-b658-45b8-b3c0-081d91bf4136}, !- Construction Name
  {e598b0ec-c190-4465-b45c-d91e801ee0b3}, !- Space Name
  Outdoors,                               !- Outside Boundary Condition
  ,                                       !- Outside Boundary Condition Object
  SunExposed,                             !- Sun Exposure
  WindExposed,                            !- Wind Exposure
  ,                                       !- View Factor to Ground
  ,                                       !- Number of Vertices
  -8.42346109387347, 8.42346109387347, 2.4384, !- X,Y,Z Vertex 1 {m}
  -8.42346109387347, -8.42346109387347, 2.4384, !- X,Y,Z Vertex 2 {m}
  8.42346109387347, -8.42346109387347, 2.4384, !- X,Y,Z Vertex 3 {m}
  8.42346109387347, 8.42346109387347, 2.4384; !- X,Y,Z Vertex 4 {m}

OS:AdditionalProperties,
  {24a5e837-8c05-4e32-99d8-04292ab645c4}, !- Handle
  {63a60021-42de-46d9-8ee4-9ce3aa717c59}, !- Object Name
  Length,                                 !- Feature Name 1
  Double,                                 !- Feature Data Type 1
  55.27205442174192,                      !- Feature Value 1
  Width,                                  !- Feature Name 2
  Double,                                 !- Feature Data Type 2
  55.272054421741913,                     !- Feature Value 2
  Azimuth,                                !- Feature Name 3
  Integer,                                !- Feature Data Type 3
  0,                                      !- Feature Value 3
  Tilt,                                   !- Feature Name 4
  Double,                                 !- Feature Data Type 4
  0,                                      !- Feature Value 4
  SurfaceType,                            !- Feature Name 5
  String,                                 !- Feature Data Type 5
  Roof;                                   !- Feature Value 5

OS:Material,
  {d22ec1d5-7fe1-4abe-acb8-5e6e94cad5a4}, !- Handle
  asphalt or fiberglass shingles,         !- Name
  Rough,                                  !- Roughness
  0.00635,                                !- Thickness {m}
  0.162714,                               !- Conductivity {W/m-K}
  1121.4,                                 !- Density {kg/m3}
  1465.45,                                !- Specific Heat {J/kg-K}
  0.9,                                    !- Thermal Absorptance
  0.85,                                   !- Solar Absorptance
  0.85;                                   !- Visible Absorptance

OS:Material,
  {a3407432-fac2-472e-ab2e-ad54fba99b4d}, !- Handle
  roof stud and cavity,                   !- Name
  Rough,                                  !- Roughness
  0.0889,                                 !- Thickness {m}
  0.491900632004487,                      !- Conductivity {W/m-K}
  50.32683,                               !- Density {kg/m3}
  1063.80987585548,                       !- Specific Heat {J/kg-K}
  0.9,                                    !- Thermal Absorptance
  0.7,                                    !- Solar Absorptance
  0.7;                                    !- Visible Absorptance

OS:Material,
  {2695e474-148a-4b45-98d9-3c391b2c4253}, !- Handle
  gypsum board,                           !- Name
  Rough,                                  !- Roughness
  0.00254,                                !- Thickness {m}
  0.1602906,                              !- Conductivity {W/m-K}
  801,                                    !- Density {kg/m3}
  837.4,                                  !- Specific Heat {J/kg-K}
  0.9,                                    !- Thermal Absorptance
  0.6,                                    !- Solar Absorptance
  0.6;                                    !- Visible Absorptance

OS:Construction,
  {290ff9e1-b658-45b8-b3c0-081d91bf4136}, !- Handle
  Roof1 construction,                     !- Name
  ,                                       !- Surface Rendering Name
  {d22ec1d5-7fe1-4abe-acb8-5e6e94cad5a4}, !- Layer 1
  {a3407432-fac2-472e-ab2e-ad54fba99b4d}, !- Layer 2
  {2695e474-148a-4b45-98d9-3c391b2c4253}; !- Layer 3

OS:Surface,
  {fc2bbbda-0fcf-4c10-8179-198e5732c536}, !- Handle
  Wall1,                                  !- Name
  Wall,                                   !- Surface Type
  {8df1fa9d-fa21-4811-80fa-d1c8f5f9ddae}, !- Construction Name
  {e598b0ec-c190-4465-b45c-d91e801ee0b3}, !- Space Name
  Outdoors,                               !- Outside Boundary Condition
  ,                                       !- Outside Boundary Condition Object
  SunExposed,                             !- Sun Exposure
  WindExposed,                            !- Wind Exposure
  ,                                       !- View Factor to Ground
  ,                                       !- Number of Vertices
  -13.6265098242187, 15.6365136527044, 0, !- X,Y,Z Vertex 1 {m}
  -13.6265098242187, 15.6365136527044, 2.4384, !- X,Y,Z Vertex 2 {m}
  5.90736017578134, 15.6365136527044, 2.4384, !- X,Y,Z Vertex 3 {m}
  5.90736017578134, 15.6365136527044, 0;  !- X,Y,Z Vertex 4 {m}

OS:AdditionalProperties,
  {b496a2a0-9c2d-45b8-92e3-6e7a8d24e626}, !- Handle
  {fc2bbbda-0fcf-4c10-8179-198e5732c536}, !- Object Name
  Length,                                 !- Feature Name 1
  Double,                                 !- Feature Data Type 1
  64.087499999999991,                     !- Feature Value 1
  Azimuth,                                !- Feature Name 2
  Integer,                                !- Feature Data Type 2
  0,                                      !- Feature Value 2
  Tilt,                                   !- Feature Name 3
  Double,                                 !- Feature Data Type 3
  90,                                     !- Feature Value 3
  SurfaceType,                            !- Feature Name 4
  String,                                 !- Feature Data Type 4
  Wall;                                   !- Feature Value 4

OS:Material,
  {9766cb57-725a-46af-8c40-f38d2bb3a84c}, !- Handle
  wood siding,                            !- Name
  Rough,                                  !- Roughness
  0.0254,                                 !- Thickness {m}
  0.1024175,                              !- Conductivity {W/m-K}
  544.68,                                 !- Density {kg/m3}
  1172.36,                                !- Specific Heat {J/kg-K}
  0.9,                                    !- Thermal Absorptance
  0.7,                                    !- Solar Absorptance
  0.7;                                    !- Visible Absorptance

OS:Material,
  {e6c1b2b4-c765-42e3-b3a7-043047803562}, !- Handle
  osb sheathing 0.5 in.,                  !- Name
  Rough,                                  !- Roughness
  0.0127,                                 !- Thickness {m}
  0.1154577,                              !- Conductivity {W/m-K}
  512.64,                                 !- Density {kg/m3}
  1214.23,                                !- Specific Heat {J/kg-K}
  0.9,                                    !- Thermal Absorptance
  0.7,                                    !- Solar Absorptance
  0.7;                                    !- Visible Absorptance

OS:Material,
  {e332c43c-a0b1-4c2e-8507-c0a40245806a}, !- Handle
  wall stud and cavity,                   !- Name
  Rough,                                  !- Roughness
  0.1397,                                 !- Thickness {m}
  0.0929021674204099,                     !- Conductivity {W/m-K}
  139.0536,                               !- Density {kg/m3}
  1170.23755760369,                       !- Specific Heat {J/kg-K}
  0.9,                                    !- Thermal Absorptance
  0.7,                                    !- Solar Absorptance
  0.7;                                    !- Visible Absorptance

OS:Material,
  {28b0eb19-514c-4022-9289-fbf4df23f501}, !- Handle
  gypsum board 1,                         !- Name
  Rough,                                  !- Roughness
  0.0127,                                 !- Thickness {m}
  0.1602906,                              !- Conductivity {W/m-K}
  801,                                    !- Density {kg/m3}
  837.4,                                  !- Specific Heat {J/kg-K}
  0.9,                                    !- Thermal Absorptance
  0.6,                                    !- Solar Absorptance
  0.6;                                    !- Visible Absorptance

OS:Construction,
  {8df1fa9d-fa21-4811-80fa-d1c8f5f9ddae}, !- Handle
  Wall1 construction,                     !- Name
  ,                                       !- Surface Rendering Name
  {9766cb57-725a-46af-8c40-f38d2bb3a84c}, !- Layer 1
  {e6c1b2b4-c765-42e3-b3a7-043047803562}, !- Layer 2
  {e332c43c-a0b1-4c2e-8507-c0a40245806a}, !- Layer 3
  {28b0eb19-514c-4022-9289-fbf4df23f501}; !- Layer 4

OS:Surface,
  {611d7d6a-71fc-49dc-897e-5f414941a7e0}, !- Handle
  Wall2,                                  !- Name
  Wall,                                   !- Surface Type
  {4cc95cb0-3cb7-42f4-b9ee-14cb1e8ef29a}, !- Construction Name
  {e598b0ec-c190-4465-b45c-d91e801ee0b3}, !- Space Name
  Outdoors,                               !- Outside Boundary Condition
  ,                                       !- Outside Boundary Condition Object
  SunExposed,                             !- Sun Exposure
  WindExposed,                            !- Wind Exposure
  ,                                       !- View Factor to Ground
  ,                                       !- Number of Vertices
  15.6365136527044, -0.538581714242879, 0, !- X,Y,Z Vertex 1 {m}
  15.6365136527044, -0.538581714242879, 2.4384, !- X,Y,Z Vertex 2 {m}
  15.6365136527044, -10.3074217142429, 2.4384, !- X,Y,Z Vertex 3 {m}
  15.6365136527044, -10.3074217142429, 0; !- X,Y,Z Vertex 4 {m}

OS:AdditionalProperties,
  {999c960d-bab3-44d2-ae6f-734836f33167}, !- Handle
  {611d7d6a-71fc-49dc-897e-5f414941a7e0}, !- Object Name
  Length,                                 !- Feature Name 1
  Double,                                 !- Feature Data Type 1
  32.049999999999997,                     !- Feature Value 1
  Azimuth,                                !- Feature Name 2