
OS:Version,
  {0666039d-b6d9-4d6f-a232-789b00acaf1d}, !- Handle
  3.10.0;                                 !- Version Identifier

OS:SimulationControl,
  {dcd8cf72-2b29-429a-b6b9-0145088a4160}, !- Handle
  ,                                       !- Do Zone Sizing Calculation
  ,                                       !- Do System Sizing Calculation
  ,                                       !- Do Plant Sizing Calculation
  No;                                     !- Run Simulation for Sizing Periods

OS:Timestep,
  {edc5cb56-b97c-4387-97ad-ec5cfc92d182}, !- Handle
  1;                                      !- Number of Timesteps per Hour

OS:ShadowCalculation,
  {8bf81571-25cf-4db9-be05-3465b1016043}, !- Handle
  PolygonClipping,                        !- Shading Calculation Method
  ,                                       !- Shading Calculation Update Frequency Method
  20,                                     !- Shading Calculation Update Frequency
  200,                                    !- Maximum Figures in Shadow Overlap Calculations
  ,                                       !- Polygon Clipping Algorithm
  512,                                    !- Pixel Counting Resolution
  ,                                       !- Sky Diffuse Modeling Algorithm
  No,                                     !- Output External Shading Calculation Results
  No,                                     !- Disable Self-Shading Within Shading Zone Groups
  No;                                     !- Disable Self-Shading From Shading Zone Groups to Other Zones

OS:SurfaceConvectionAlgorithm:Outside,
  {767b1aa3-279f-4c4e-b98d-2de14dab3bfb}, !- Handle
  DOE-2;                                  !- Algorithm

OS:SurfaceConvectionAlgorithm:Inside,
  {f359c6b9-ba59-42e8-b69c-0e09d85c3811}, !- Handle
  TARP;                                   !- Algorithm

OS:ZoneCapacitanceMultiplier:ResearchSpecial,
  {7ed7cbcd-6d72-4974-8cda-dd31789164a8}, !- Handle
  7,                                      !- Temperature Capacity Multiplier
  15,                                     !- Humidity Capacity Multiplier
  ;                                       !- Carbon Dioxide Capacity Multiplier

OS:ConvergenceLimits,
  {ed28a321-a5ae-43e3-9ea8-a89b4d885917}, !- Handle
  0;                                      !- Minimum System Timestep {minutes}

OS:RunPeriod,
  {a75ea3b2-8441-4121-afda-4dc84f90080b}, !- Handle
  Run Period 1,                           !- Name
  1,                                      !- Begin Month
  1,                                      !- Begin Day of Month
  12,                                     !- End Month
  31,                                     !- End Day of Month
  ,                                       !- Use Weather File Holidays and Special Days
  ,                                       !- Use Weather File Daylight Saving Period
  ,                                       !- Apply Weekend Holiday Rule
  ,                                       !- Use Weather File Rain Indicators
  ,                                       !- Use Weather File Snow Indicators
  ;                                       !- Number of Times Runperiod to be Repeated

OS:PerformancePrecisionTradeoffs,
  {6b5207a7-70cb-4819-b115-1b160ad31eae}, !- Handle
  ,                                       !- Use Coil Direct Solutions
  CarrollMRT;                             !- Zone Radiant Exchange Algorithm

OS:WeatherFile,
  {7ea0aa65-c845-4f61-9e92-44f513002ea7}, !- Handle
  Buffalo Niagara Intl Ap,                !- City
  NY,                                     !- State Province Region
  USA,                                    !- Country
  TMY3,                                   !- Data Source
  725280,                                 !- WMO Number
  42.93,                                  !- Latitude {deg}
  -78.73,                                 !- Longitude {deg}
  -5,                                     !- Time Zone {hr}
  215,                                    !- Elevation {m}
  /Users/nmoore/github/urbanopt-example-geojson-project/example_project/weather/USA_NY_Buffalo-Greater.Buffalo.Intl.AP.725280_TMY3.epw, !- Url
  6B50E0FF,                               !- Checksum
  ,                                       !- Start Date Actual Year
  Sunday;                                 !- Start Day of Week

OS:YearDescription,
  {2fba2533-6724-467d-8e04-f60cc6338598}, !- Handle
  2007,                                   !- Calendar Year
  ,                                       !- Day of Week for Start Day
  ;                                       !- Is Leap Year

OS:Site,
  {33886aae-b435-4fa0-b3da-bedb70ea2a52}, !- Handle
  Buffalo Niagara Intl Ap_NY,             !- Name
  42.93,                                  !- Latitude {deg}
  -78.73,                                 !- Longitude {deg}
  -5,                                     !- Time Zone {hr}
  215,                                    !- Elevation {m}
  Suburbs,                                !- Terrain
  Yes;                                    !- Keep Site Location Information

OS:RunPeriodControl:DaylightSavingTime,
  {dc39fa60-be41-4f76-b751-6812e04b574d}, !- Handle
  Mar 12,                                 !- Start Date
  Nov 5;                                  !- End Date

OS:Site:GroundTemperature:Shallow,
  {630ea754-7d59-4bd1-9017-aa1fc837f471}, !- Handle
  4.30207395723828,                       !- January Surface Ground Temperature {C}
  2.29327249652502,                       !- February Surface Ground Temperature {C}
  2.13240047156047,                       !- March Surface Ground Temperature {C}
  3.08567940719286,                       !- April Surface Ground Temperature {C}
  6.91256312497526,                       !- May Surface Ground Temperature {C}
  10.7216195949507,                       !- June Surface Ground Temperature {C}
  14.0238679822574,                       !- July Surface Ground Temperature {C}
  16.1157611184724,                       !- August Surface Ground Temperature {C}
  16.2934789303462,                       !- September Surface Ground Temperature {C}
  14.5920754632847,                       !- October Surface Ground Temperature {C}
  11.374036348653,                        !- November Surface Ground Temperature {C}
  7.68182621661674;                       !- December Surface Ground Temperature {C}

OS:ThermalZone,
  {bf839c77-00a6-47d8-8e3e-e4a6a7024f11}, !- Handle
  conditioned space,                      !- Name
  1,                                      !- Multiplier
  ,                                       !- Ceiling Height {m}
  692.06373070848,                        !- Volume {m3}
  ,                                       !- Floor Area {m2}
  ,                                       !- Zone Inside Convection Algorithm
  ,                                       !- Zone Outside Convection Algorithm
  ,                                       !- Zone Conditioning Equipment List Name
  {96d27883-e54c-43c6-bda6-956e947cdc9c}, !- Zone Air Inlet Port List
  {8a394cec-5b6c-43bc-803b-4828bae13f51}, !- Zone Air Exhaust Port List
  {8e2f66f1-7fee-4624-86fe-0825a1015e4b}, !- Zone Air Node Name
  {696b9212-bc7f-472a-ac55-bee84d508b62}, !- Zone Return Air Port List
  ,                                       !- Primary Daylighting Control Name
  ,                                       !- Fraction of Zone Controlled by Primary Daylighting Control
  ,                                       !- Secondary Daylighting Control Name
  ,                                       !- Fraction of Zone Controlled by Secondary Daylighting Control
  ,                                       !- Illuminance Map Name
  ,                                       !- Group Rendering Name
  {3726b6f1-f7c9-4415-b3f5-bc0168b997b7}, !- Thermostat Name
  No;                                     !- Use Ideal Air Loads

OS:Node,
  {deeb492e-e6c6-48c8-b49f-cbae29f881a8}, !- Handle
  Node 1,                                 !- Name
  {8e2f66f1-7fee-4624-86fe-0825a1015e4b}, !- Inlet Port
  ;                                       !- Outlet Port

OS:Connection,
  {8e2f66f1-7fee-4624-86fe-0825a1015e4b}, !- Handle
  {bf839c77-00a6-47d8-8e3e-e4a6a7024f11}, !- Source Object
  11,                                     !- Outlet Port
  {deeb492e-e6c6-48c8-b49f-cbae29f881a8}, !- Target Object
  2;                                      !- Inlet Port

OS:PortList,
  {96d27883-e54c-43c6-bda6-956e947cdc9c}, !- Handle
  {bf839c77-00a6-47d8-8e3e-e4a6a7024f11}, !- HVAC Component
  {cf08bb77-3b4f-41ad-a69d-96f915f8e60b}; !- Port 1

OS:PortList,
  {8a394cec-5b6c-43bc-803b-4828bae13f51}, !- Handle
  {bf839c77-00a6-47d8-8e3e-e4a6a7024f11}; !- HVAC Component

OS:PortList,
  {696b9212-bc7f-472a-ac55-bee84d508b62}, !- Handle
  {bf839c77-00a6-47d8-8e3e-e4a6a7024f11}, !- HVAC Component
  {2c20b4e9-308e-470b-bcd2-43dc99ace2b3}; !- Port 1

OS:Sizing:Zone,
  {c1fb2351-d641-4750-ad7b-0e03adb4fa8e}, !- Handle
  {bf839c77-00a6-47d8-8e3e-e4a6a7024f11}, !- Zone or ZoneList Name
  SupplyAirTemperature,                   !- Zone Cooling Design Supply Air Temperature Input Method
  14,                                     !- Zone Cooling Design Supply Air Temperature {C}
  11.11,                                  !- Zone Cooling Design Supply Air Temperature Difference {deltaC}
  SupplyAirTemperature,                   !- Zone Heating Design Supply Air Temperature Input Method
  40,                                     !- Zone Heating Design Supply Air Temperature {C}
  11.11,                                  !- Zone Heating Design Supply Air Temperature Difference {deltaC}
  0.0085,                                 !- Zone Cooling Design Supply Air Humidity Ratio {kg-H2O/kg-air}
  0.008,                                  !- Zone Heating Design Supply Air Humidity Ratio {kg-H2O/kg-air}
  ,                                       !- Zone Heating Sizing Factor
  ,                                       !- Zone Cooling Sizing Factor
  DesignDay,                              !- Cooling Design Air Flow Method
  ,                                       !- Cooling Design Air Flow Rate {m3/s}
  ,                                       !- Cooling Minimum Air Flow per Zone Floor Area {m3/s-m2}
  ,                                       !- Cooling Minimum Air Flow {m3/s}
  ,                                       !- Cooling Minimum Air Flow Fraction
  DesignDay,                              !- Heating Design Air Flow Method
  ,                                       !- Heating Design Air Flow Rate {m3/s}
  ,                                       !- Heating Maximum Air Flow per Zone Floor Area {m3/s-m2}
  ,                                       !- Heating Maximum Air Flow {m3/s}
  ,                                       !- Heating Maximum Air Flow Fraction
  No,                                     !- Account for Dedicated Outdoor Air System
  NeutralSupplyAir,                       !- Dedicated Outdoor Air System Control Strategy
  autosize,                               !- Dedicated Outdoor Air Low Setpoint Temperature for Design {C}
  autosize,                               !- Dedicated Outdoor Air High Setpoint Temperature for Design {C}
  Sensible Load Only No Latent Load,      !- Zone Load Sizing Method
  HumidityRatioDifference,                !- Zone Latent Cooling Design Supply Air Humidity Ratio Input Method
  ,                                       !- Zone Dehumidification Design Supply Air Humidity Ratio {kgWater/kgDryAir}
  0.005,                                  !- Zone Cooling Design Supply Air Humidity Ratio Difference {kgWater/kgDryAir}
  HumidityRatioDifference,                !- Zone Latent Heating Design Supply Air Humidity Ratio Input Method
  ,                                       !- Zone Humidification Design Supply Air Humidity Ratio {kgWater/kgDryAir}
  0.005,                                  !- Zone Humidification Design Supply Air Humidity Ratio Difference {kgWater/kgDryAir}
  ,                                       !- Zone Humidistat Dehumidification Set Point Schedule Name
  ,                                       !- Zone Humidistat Humidification Set Point Schedule Name
  ,                                       !- Design Zone Air Distribution Effectiveness in Cooling Mode
  ,                                       !- Design Zone Air Distribution Effectiveness in Heating Mode
  ,                                       !- Design Zone Secondary Recirculation Fraction {dimensionless}
  ,                                       !- Design Minimum Zone Ventilation Efficiency {dimensionless}
  Coincident;                             !- Sizing Option

OS:ZoneHVAC:EquipmentList,
  {71f505b7-992c-4114-8a02-e5ddeee6f75c}, !- Handle
  Zone HVAC Equipment List 1,             !- Name
  {bf839c77-00a6-47d8-8e3e-e4a6a7024f11}, !- Thermal Zone
  ,                                       !- Load Distribution Scheme
  {18b6ab42-6890-4bd2-8b12-c5e69a944e09}, !- Zone Equipment 1
  1,                                      !- Zone Equipment Cooling Sequence 1
  1,                                      !- Zone Equipment Heating or No-Load Sequence 1
  {2925a1df-c6e3-456b-a17a-1e00931f3171}, !- Zone Equipment Sequential Cooling Fraction Schedule Name 1
  {c93099dc-efd0-4fe3-942d-bcd5317b54fc}; !- Zone Equipment Sequential Heating Fraction Schedule Name 1

OS:AdditionalProperties,
  {a21c05a9-2bf7-45d9-ad8e-6dcf62398724}, !- Handle
  {bf839c77-00a6-47d8-8e3e-e4a6a7024f11}, !- Object Name
  ObjectType,                             !- Feature Name 1
  String,                                 !- Feature Data Type 1
  conditioned space;                      !- Feature Value 1

OS:Space,
  {56d0fd6a-fadd-424b-b899-c6bc5fa106c6}, !- Handle
  conditioned space 1,                    !- Name
  ,                                       !- Space Type Name
  ,                                       !- Default Construction Set Name
  ,                                       !- Default Schedule Set Name
  ,                                       !- Direction of Relative North {deg}
  ,                                       !- X Origin {m}
  ,                                       !- Y Origin {m}
  ,                                       !- Z Origin {m}
  ,                                       !- Building Story Name
  {bf839c77-00a6-47d8-8e3e-e4a6a7024f11}, !- Thermal Zone Name
  ,                                       !- Part of Total Floor Area
  ,                                       !- Design Specification Outdoor Air Object Name
  ,                                       !- Building Unit Name
  692.06373070848;                        !- Volume {m3}

OS:Schedule:Ruleset,
  {fe342143-7533-4b30-9c0d-4bf8e4fbc74a}, !- Handle
  heating setpoint,                       !- Name
  {4f600d4a-70b3-4de1-918c-15513499d135}, !- Schedule Type Limits Name
  {b796333f-5e1b-48a2-a013-509aa3791d79}; !- Default Day Schedule Name

OS:Schedule:Day,
  {b796333f-5e1b-48a2-a013-509aa3791d79}, !- Handle
  heating setpoint default day,           !- Name
  {4f600d4a-70b3-4de1-918c-15513499d135}, !- Schedule Type Limits Name
  ,                                       !- Interpolate to Timestep
  24,                                     !- Hour 1
  0,                                      !- Minute 1
  0;                                      !- Value Until Time 1

OS:Schedule:Rule,
  {49ed7678-02bf-4af1-8abb-fe39f93939a3}, !- Handle
  heating setpoint allday rule,           !- Name
  {fe342143-7533-4b30-9c0d-4bf8e4fbc74a}, !- Schedule Ruleset Name
  0,                                      !- Rule Order
  {707551a1-2ae6-4f38-8718-994c5b6b68f0}, !- Day Schedule Name
  Yes,                                    !- Apply Sunday
  Yes,                                    !- Apply Monday
  Yes,                                    !- Apply Tuesday
  Yes,                                    !- Apply Wednesday
  Yes,                                    !- Apply Thursday
  Yes,                                    !- Apply Friday
  Yes,                                    !- Apply Saturday
  DateRange,                              !- Date Specification Type
  1,                                      !- Start Month
  1,                                      !- Start Day
  12,                                     !- End Month
  31;                                     !- End Day

OS:Schedule:Day,
  {707551a1-2ae6-4f38-8718-994c5b6b68f0}, !- Handle
  heating setpoint day,                   !- Name
  {4f600d4a-70b3-4de1-918c-15513499d135}, !- Schedule Type Limits Name
  ,                                       !- Interpolate to Timestep
  24,                                     !- Hour 1
  0,                                      !- Minute 1
  20;                                     !- Value Until Time 1

OS:Schedule:Ruleset,
  {72287590-51ea-49b9-a683-29d48a06b653}, !- Handle
  cooling setpoint,                       !- Name
  {4f600d4a-70b3-4de1-918c-15513499d135}, !- Schedule Type Limits Name
  {fa43434e-0852-4738-805e-a60ce5221b0f}; !- Default Day Schedule Name

OS:Schedule:Day,
  {fa43434e-0852-4738-805e-a60ce5221b0f}, !- Handle
  cooling setpoint default day,           !- Name
  {4f600d4a-70b3-4de1-918c-15513499d135}, !- Schedule Type Limits Name
  ,                                       !- Interpolate to Timestep
  24,                                     !- Hour 1
  0,                                      !- Minute 1
  0;                                      !- Value Until Time 1

OS:Schedule:Rule,
  {a21316ef-b06f-45cf-ba45-20c823697a67}, !- Handle
  cooling setpoint allday rule,           !- Name
  {72287590-51ea-49b9-a683-29d48a06b653}, !- Schedule Ruleset Name
  0,                                      !- Rule Order
  {e036866f-dd47-489a-ac2d-946db7d7c3ee}, !- Day Schedule Name
  Yes,                                    !- Apply Sunday
  Yes,                                    !- Apply Monday
  Yes,                                    !- Apply Tuesday
  Yes,                                    !- Apply Wednesday
  Yes,                                    !- Apply Thursday
  Yes,                                    !- Apply Friday
  Yes,                                    !- Apply Saturday
  DateRange,                              !- Date Specification Type
  1,                                      !- Start Month
  1,                                      !- Start Day
  12,                                     !- End Month
  31;                                     !- End Day

OS:Schedule:Day,
  {e036866f-dd47-489a-ac2d-946db7d7c3ee}, !- Handle
  cooling setpoint day,                   !- Name
  {4f600d4a-70b3-4de1-918c-15513499d135}, !- Schedule Type Limits Name
  ,                                       !- Interpolate to Timestep
  24,                                     !- Hour 1
  0,                                      !- Minute 1
  25.5555555555556;                       !- Value Until Time 1

OS:ThermostatSetpoint:DualSetpoint,
  {3726b6f1-f7c9-4415-b3f5-bc0168b997b7}, !- Handle
  conditioned space temperature setpoint, !- Name
  {fe342143-7533-4b30-9c0d-4bf8e4fbc74a}, !- Heating Setpoint Temperature Schedule Name
  {72287590-51ea-49b9-a683-29d48a06b653}, !- Cooling Setpoint Temperature Schedule Name
  0;                                      !- Temperature Difference Between Cutout And Setpoint {deltaC}

OS:ScheduleTypeLimits,
  {4f600d4a-70b3-4de1-918c-15513499d135}, !- Handle
  Temperature,                            !- Name
  ,                                       !- Lower Limit Value
  ,                                       !- Upper Limit Value
  Continuous,                             !- Numeric Type
  Temperature;                            !- Unit Type

OS:Surface,
  {994f00e7-5b90-4af3-b921-43c1ec5fe43e}, !- Handle
  Roof1,                                  !- Name
  RoofCeiling,                            !- Surface Type
  {7bf2bf72-6e50-4cee-ab38-cbc4fd0e718a}, !- Construction Name
  {ba93f399-62e4-4b7a-b357-88b65bcade06}, !- Space Name
  Outdoors,                               !- Outside Boundary Condition
  ,                                       !- Outside Boundary Condition Object
  SunExposed,                             !- Sun Exposure
  WindExposed,                            !- Wind Exposure
  ,                                       !- View Factor to Ground
  ,                                       !- Number of Vertices
  -26.9347048849634, 58.0557891618865, 2.4384, !- X,Y,Z Vertex 1 {m}
  -26.9347048849634, 46.7895631136661, 8.0715130241102, !- X,Y,Z Vertex 2 {m}
  -14.3386812381136, 46.7895631136661, 8.0715130241102, !- X,Y,Z Vertex 3 {m}
  -14.3386812381136, 58.0557891618865, 2.4384; !- X,Y,Z Vertex 4 {m}

OS:AdditionalProperties,
  {a187f83d-78b5-45a3-bc94-7d35bf0cec5c}, !- Handle
  {994f00e7-5b90-4af3-b921-43c1ec5fe43e}, !- Object Name
  Length,                                 !- Feature Name 1
  Double,                                 !- Feature Data Type 1
  41.325536899113608,                     !- Feature Value 1
  Width,                                  !- Feature Name 2
  Double,                                 !- Feature Data Type 2
  41.325536899113601,                     !- Feature Value 2
  Azimuth,                                !- Feature Name 3
  Integer,                                !- Feature Data Type 3
  0,                                      !- Feature Value 3
  Tilt,                                   !- Feature Name 4
  Double,                                 !- Feature Data Type 4
  0.5,                                    !- Feature Value 4
  SurfaceType,                            !- Feature Name 5
  String,                                 !- Feature Data Type 5
  Roof;                                   !- Feature Value 5

OS:ThermalZone,
  {faabcc02-9874-4a96-9d3a-69a6313cf8be}, !- Handle
  attic - vented,                         !- Name
  1,                                      !- Multiplier
  ,                                       !- Ceiling Height {m}
  356.390921899745,                       !- Volume {m3}
  ,                                       !- Floor Area {m2}
  ,                                       !- Zone Inside Convection Algorithm
  ,                                       !- Zone Outside Convection Algorithm
  ,                                       !- Zone Conditioning Equipment List Name
  {0f680fda-56a9-42df-acf9-258bb40a89cc}, !- Zone Air Inlet Port List
  {0c8344d0-392d-4fb2-899d-12f52bf15cf5}, !- Zone Air Exhaust Port List
  {eacfb3d9-fab5-4d7f-b77c-a4d7b6637527}, !- Zone Air Node Name
  {3f68cb32-d8e2-4b43-9f18-732c7dec5bd1}, !- Zone Return Air Port List
  ,                                       !- Primary Daylighting Control Name
  ,                                       !- Fraction of Zone Controlled by Primary Daylighting Control
  ,                                       !- Secondary Daylighting Control Name
  ,                                       !- Fraction of Zone Controlled by Secondary Daylighting Control
  ,                                       !- Illuminance Map Name
  ,                                       !- Group Rendering Name
  ,                                       !- Thermostat Name
  No;                                     !- Use Ideal Air Loads

OS:Node,
  {d2f687e1-7887-4262-bd76-33646cf4e3d3}, !- Handle
  Node 2,                                 !- Name
  {eacfb3d9-fab5-4d7f-b77c-a4d7b6637527}, !- Inlet Port
  ;                                       !- Outlet Port

OS:Connection,
  {eacfb3d9-fab5-4d7f-b77c-a4d7b6637527}, !- Handle
  {faabcc02-9874-4a96-9d3a-69a6313cf8be}, !- Source Object
  11,                                     !- Outlet Port
  {d2f687e1-7887-4262-bd76-33646cf4e3d3}, !- Target Object
  2;                                      !- Inlet Port

OS:PortList,
  {0f680fda-56a9-42df-acf9-258bb40a89cc}, !- Handle
  {faabcc02-9874-4a96-9d3a-69a6313cf8be}; !- HVAC Component

OS:PortList,
  {0c8344d0-392d-4fb2-899d-12f52bf15cf5}, !- Handle
  {faabcc02-9874-4a96-9d3a-69a6313cf8be}; !- HVAC Component

OS:PortList,
  {3f68cb32-d8e2-4b43-9f18-732c7dec5bd1}, !- Handle
  {faabcc02-9874-4a96-9d3a-69a6313cf8be}; !- HVAC Component

OS:Sizing:Zone,
  {b8aa4f33-fc2e-44ec-8d06-e660ee13d07b}, !- Handle
  {faabcc02-9874-4a96-9d3a-69a6313cf8be}, !- Zone or ZoneList Name
  SupplyAirTemperature,                   !- Zone Cooling Design Supply Air Temperature Input Method
  14,                                     !- Zone Cooling Design Supply Air Temperature {C}
  11.11,                                  !- Zone Cooling Design Supply Air Temperature Difference {deltaC}
  SupplyAirTemperature,                   !- Zone Heating Design Supply Air Temperature Input Method
  40,                                     !- Zone Heating Design Supply Air Temperature {C}
  11.11,                                  !- Zone Heating Design Supply Air Temperature Difference {deltaC}
  0.0085,                                 !- Zone Cooling Design Supply Air Humidity Ratio {kg-H2O/kg-air}
  0.008,                                  !- Zone Heating Design Supply Air Humidity Ratio {kg-H2O/kg-air}
  ,                                       !- Zone Heating Sizing Factor
  ,                                       !- Zone Cooling Sizing Factor
  DesignDay,                              !- Cooling Design Air Flow Method
  ,                                       !- Cooling Design Air Flow Rate {m3/s}
  ,                                       !- Cooling Minimum Air Flow per Zone Floor Area {m3/s-m2}
  ,                                       !- Cooling Minimum Air Flow {m3/s}
  ,                                       !- Cooling Minimum Air Flow Fraction
  DesignDay,                              !- Heating Design Air Flow Method
  ,                                       !- Heating Design Air Flow Rate {m3/s}
  ,                                       !- Heating Maximum Air Flow per Zone Floor Area {m3/s-m2}
  ,                                       !- Heating Maximum Air Flow {m3/s}
  ,                                       !- Heating Maximum Air Flow Fraction
  No,                                     !- Account for Dedicated Outdoor Air System
  NeutralSupplyAir,                       !- Dedicated Outdoor Air System Control Strategy
  autosize,                               !- Dedicated Outdoor Air Low Setpoint Temperature for Design {C}
  autosize,                               !- Dedicated Outdoor Air High Setpoint Temperature for Design {C}
  Sensible Load Only No Latent Load,      !- Zone Load Sizing Method
  HumidityRatioDifference,                !- Zone Latent Cooling Design Supply Air Humidity Ratio Input Method
  ,                                       !- Zone Dehumidification Design Supply Air Humidity Ratio {kgWater/kgDryAir}
  0.005,                                  !- Zone Cooling Design Supply Air Humidity Ratio Difference {kgWater/kgDryAir}
  HumidityRatioDifference,                !- Zone Latent Heating Design Supply Air Humidity Ratio Input Method
  ,                                       !- Zone Humidification Design Supply Air Humidity Ratio {kgWater/kgDryAir}
  0.005,                                  !- Zone Humidification Design Supply Air Humidity Ratio Difference {kgWater/kgDryAir}
  ,                                       !- Zone Humidistat Dehumidification Set Point Schedule Name
  ,                                       !- Zone Humidistat Humidification Set Point Schedule Name
  ,                                       !- Design Zone Air Distribution Effectiveness in Cooling Mode
  ,                                       !- Design Zone Air Distribution Effectiveness in Heating Mode
  ,                                       !- Design Zone Secondary Recirculation Fraction {dimensionless}
  ,                                       !- Design Minimum Zone Ventilation Efficiency {dimensionless}
  Coincident;                             !- Sizing Option

OS:ZoneHVAC:EquipmentList,
  {cec045a6-d2d2-4472-82bc-9775898592da}, !- Handle
  Zone HVAC Equipment List 2,             !- Name
  {faabcc02-9874-4a96-9d3a-69a6313cf8be}; !- Thermal Zone

OS:AdditionalProperties,
  {a5331382-5713-4c56-8dec-9a9742623689}, !- Handle
  {faabcc02-9874-4a96-9d3a-69a6313cf8be}, !- Object Name
  ObjectType,                             !- Feature Name 1
  String,                                 !- Feature Data Type 1
  attic - vented;                         !- Feature Value 1

OS:Space,
  {ba93f399-62e4-4b7a-b357-88b65bcade06}, !- Handle
  attic - vented 1,                       !- Name
  ,                                       !- Space Type Name
  ,                                       !- Default Construction Set Name
  ,                                       !- Default Schedule Set Name
  ,                                       !- Direction of Relative North {deg}
  ,                                       !- X Origin {m}
  ,                                       !- Y Origin {m}
  ,                                       !- Z Origin {m}
  ,                                       !- Building Story Name
  {faabcc02-9874-4a96-9d3a-69a6313cf8be}, !- Thermal Zone Name
  ,                                       !- Part of Total Floor Area
  ,                                       !- Design Specification Outdoor Air Object Name
  ,                                       !- Building Unit Name
  356.390921899745;                       !- Volume {m3}

OS:Material,
  {f373806f-18eb-4ac0-90d5-c3cd60e6223f}, !- Handle
  asphalt or fiberglass shingles,         !- Name
  Rough,                                  !- Roughness
  0.00635,                                !- Thickness {m}
  0.162714,                               !- Conductivity {W/m-K}
  1121.4,                                 !- Density {kg/m3}
  1465.45,                                !- Specific Heat {J/kg-K}
  0.9,                                    !- Thermal Absorptance
  0.85,                                   !- Solar Absorptance