
OS:Version,
  {175e5895-cfce-4ffc-84cb-ea8dcb72fe79}, !- Handle
  3.9.0;                                  !- Version Identifier

OS:SimulationControl,
  {719b1161-f80d-41f9-93a8-5f4270121452}, !- Handle
  ,                                       !- Do Zone Sizing Calculation
  ,                                       !- Do System Sizing Calculation
  ,                                       !- Do Plant Sizing Calculation
  No;                                     !- Run Simulation for Sizing Periods

OS:Timestep,
  {8ff28397-74f7-4d23-ae5f-4769c4ba3715}, !- Handle
  1;                                      !- Number of Timesteps per Hour

OS:ShadowCalculation,
  {d51ddfa1-ff0a-4e57-a749-3f32a87ad93e}, !- Handle
  PolygonClipping,                        !- Shading Calculation Method
  ,                                       !- Shading Calculation Update Frequency Method
  20,                                     !- Shading Calculation Update Frequency
  200,                                    !- Maximum Figures in Shadow Overlap Calculations
  ,                                       !- Polygon Clipping Algorithm
  512,                                    !- Pixel Counting Resolution
  ,                                       !- Sky Diffuse Modeling Algorithm
  No,                                     !- Output External Shading Calculation Results
  No,                                     !- Disable Self-Shading Within Shading Zone Groups
  No;                                     !- Disable Self-Shading From Shading Zone Groups to Other Zones

OS:SurfaceConvectionAlgorithm:Outside,
  {49e696e5-f989-43ea-ad78-cdf49b5fb394}, !- Handle
  DOE-2;                                  !- Algorithm

OS:SurfaceConvectionAlgorithm:Inside,
  {f037b0e9-0f8a-41c2-b046-fe1fac83ecf9}, !- Handle
  TARP;                                   !- Algorithm

OS:ZoneCapacitanceMultiplier:ResearchSpecial,
  {783291d6-aa5a-4d9f-afe2-d5afb1023327}, !- Handle
  7,                                      !- Temperature Capacity Multiplier
  15,                                     !- Humidity Capacity Multiplier
  ;                                       !- Carbon Dioxide Capacity Multiplier

OS:ConvergenceLimits,
  {d27050f1-04f7-43a8-aaf9-f1c465ab7fb7}, !- Handle
  0;                                      !- Minimum System Timestep {minutes}

OS:RunPeriod,
  {2a0d10ea-d499-4844-923f-44f9d60b9acf}, !- Handle
  Run Period 1,                           !- Name
  1,                                      !- Begin Month
  1,                                      !- Begin Day of Month
  12,                                     !- End Month
  31,                                     !- End Day of Month
  ,                                       !- Use Weather File Holidays and Special Days
  ,                                       !- Use Weather File Daylight Saving Period
  ,                                       !- Apply Weekend Holiday Rule
  ,                                       !- Use Weather File Rain Indicators
  ,                                       !- Use Weather File Snow Indicators
  ;                                       !- Number of Times Runperiod to be Repeated

OS:PerformancePrecisionTradeoffs,
  {d3e174ff-c237-41a5-913a-cec1eef28510}, !- Handle
  ,                                       !- Use Coil Direct Solutions
  CarrollMRT;                             !- Zone Radiant Exchange Algorithm

OS:WeatherFile,
  {7f1a9316-4539-4858-ad1f-0fad4e9ae338}, !- Handle
  Buffalo Niagara Intl Ap,                !- City
  NY,                                     !- State Province Region
  USA,                                    !- Country
  TMY3,                                   !- Data Source
  725280,                                 !- WMO Number
  42.93,                                  !- Latitude {deg}
  -78.73,                                 !- Longitude {deg}
  -5,                                     !- Time Zone {hr}
  215,                                    !- Elevation {m}
  /Users/nmoore/github/urbanopt-example-geojson-project/example_project/weather/USA_NY_Buffalo-Greater.Buffalo.Intl.AP.725280_TMY3.epw, !- Url
  6B50E0FF,                               !- Checksum
  ,                                       !- Start Date Actual Year
  Sunday;                                 !- Start Day of Week

OS:YearDescription,
  {7a1e22d0-6937-4502-9af7-c8bfa9d66a13}, !- Handle
  2007,                                   !- Calendar Year
  ,                                       !- Day of Week for Start Day
  ;                                       !- Is Leap Year

OS:Site,
  {92af1a5c-9acc-493a-8496-e837146b18b6}, !- Handle
  Buffalo Niagara Intl Ap_NY,             !- Name
  42.93,                                  !- Latitude {deg}
  -78.73,                                 !- Longitude {deg}
  -5,                                     !- Time Zone {hr}
  215,                                    !- Elevation {m}
  Suburbs,                                !- Terrain
  Yes;                                    !- Keep Site Location Information

OS:RunPeriodControl:DaylightSavingTime,
  {1cb7a929-cd35-45df-9e5a-a6dfcde1facc}, !- Handle
  Mar 12,                                 !- Start Date
  Nov 5;                                  !- End Date

OS:Site:GroundTemperature:Shallow,
  {ce7f5d0e-5ac0-4922-8235-af58135aab4d}, !- Handle
  4.30207395723828,                       !- January Surface Ground Temperature {C}
  2.29327249652502,                       !- February Surface Ground Temperature {C}
  2.13240047156047,                       !- March Surface Ground Temperature {C}
  3.08567940719286,                       !- April Surface Ground Temperature {C}
  6.91256312497526,                       !- May Surface Ground Temperature {C}
  10.7216195949507,                       !- June Surface Ground Temperature {C}
  14.0238679822574,                       !- July Surface Ground Temperature {C}
  16.1157611184724,                       !- August Surface Ground Temperature {C}
  16.2934789303462,                       !- September Surface Ground Temperature {C}
  14.5920754632847,                       !- October Surface Ground Temperature {C}
  11.374036348653,                        !- November Surface Ground Temperature {C}
  7.68182621661674;                       !- December Surface Ground Temperature {C}

OS:ThermalZone,
  {b6df6341-40c7-4c7b-8fb9-8b9b251160c6}, !- Handle
  conditioned space,                      !- Name
  1,                                      !- Multiplier
  ,                                       !- Ceiling Height {m}
  692.06373070848,                        !- Volume {m3}
  ,                                       !- Floor Area {m2}
  ,                                       !- Zone Inside Convection Algorithm
  ,                                       !- Zone Outside Convection Algorithm
  ,                                       !- Zone Conditioning Equipment List Name
  {7e5982a2-fa8d-45ee-9375-d5deb35a42d6}, !- Zone Air Inlet Port List
  {eb862499-a4f6-483e-9444-13e79d2f3b72}, !- Zone Air Exhaust Port List
  {4ecfb978-f519-4cd8-a214-6c39704db0aa}, !- Zone Air Node Name
  {883fb882-7bc7-49b7-b671-cd3fd89c5ce0}, !- Zone Return Air Port List
  ,                                       !- Primary Daylighting Control Name
  ,                                       !- Fraction of Zone Controlled by Primary Daylighting Control
  ,                                       !- Secondary Daylighting Control Name
  ,                                       !- Fraction of Zone Controlled by Secondary Daylighting Control
  ,                                       !- Illuminance Map Name
  ,                                       !- Group Rendering Name
  {813e6510-d1a6-423f-bdc8-7156c45b2642}, !- Thermostat Name
  No;                                     !- Use Ideal Air Loads

OS:Node,
  {22c1bd6c-6256-416b-8f5d-2eb0439f1b67}, !- Handle
  Node 1,                                 !- Name
  {4ecfb978-f519-4cd8-a214-6c39704db0aa}, !- Inlet Port
  ;                                       !- Outlet Port

OS:Connection,
  {4ecfb978-f519-4cd8-a214-6c39704db0aa}, !- Handle
  {b6df6341-40c7-4c7b-8fb9-8b9b251160c6}, !- Source Object
  11,                                     !- Outlet Port
  {22c1bd6c-6256-416b-8f5d-2eb0439f1b67}, !- Target Object
  2;                                      !- Inlet Port

OS:PortList,
  {7e5982a2-fa8d-45ee-9375-d5deb35a42d6}, !- Handle
  {b6df6341-40c7-4c7b-8fb9-8b9b251160c6}, !- HVAC Component
  {97c430bf-dc96-4e35-84e8-3f806f1868be}; !- Port 1

OS:PortList,
  {eb862499-a4f6-483e-9444-13e79d2f3b72}, !- Handle
  {b6df6341-40c7-4c7b-8fb9-8b9b251160c6}; !- HVAC Component

OS:PortList,
  {883fb882-7bc7-49b7-b671-cd3fd89c5ce0}, !- Handle
  {b6df6341-40c7-4c7b-8fb9-8b9b251160c6}, !- HVAC Component
  {b8f404e7-64dd-481b-99f6-713becf1a051}; !- Port 1

OS:Sizing:Zone,
  {e892ddd2-d167-4c1d-b527-7334158713d9}, !- Handle
  {b6df6341-40c7-4c7b-8fb9-8b9b251160c6}, !- Zone or ZoneList Name
  SupplyAirTemperature,                   !- Zone Cooling Design Supply Air Temperature Input Method
  14,                                     !- Zone Cooling Design Supply Air Temperature {C}
  11.11,                                  !- Zone Cooling Design Supply Air Temperature Difference {deltaC}
  SupplyAirTemperature,                   !- Zone Heating Design Supply Air Temperature Input Method
  40,                                     !- Zone Heating Design Supply Air Temperature {C}
  11.11,                                  !- Zone Heating Design Supply Air Temperature Difference {deltaC}
  0.0085,                                 !- Zone Cooling Design Supply Air Humidity Ratio {kg-H2O/kg-air}
  0.008,                                  !- Zone Heating Design Supply Air Humidity Ratio {kg-H2O/kg-air}
  ,                                       !- Zone Heating Sizing Factor
  ,                                       !- Zone Cooling Sizing Factor
  DesignDay,                              !- Cooling Design Air Flow Method
  ,                                       !- Cooling Design Air Flow Rate {m3/s}
  ,                                       !- Cooling Minimum Air Flow per Zone Floor Area {m3/s-m2}
  ,                                       !- Cooling Minimum Air Flow {m3/s}
  ,                                       !- Cooling Minimum Air Flow Fraction
  DesignDay,                              !- Heating Design Air Flow Method
  ,                                       !- Heating Design Air Flow Rate {m3/s}
  ,                                       !- Heating Maximum Air Flow per Zone Floor Area {m3/s-m2}
  ,                                       !- Heating Maximum Air Flow {m3/s}
  ,                                       !- Heating Maximum Air Flow Fraction
  No,                                     !- Account for Dedicated Outdoor Air System
  NeutralSupplyAir,                       !- Dedicated Outdoor Air System Control Strategy
  autosize,                               !- Dedicated Outdoor Air Low Setpoint Temperature for Design {C}
  autosize,                               !- Dedicated Outdoor Air High Setpoint Temperature for Design {C}
  Sensible Load Only No Latent Load,      !- Zone Load Sizing Method
  HumidityRatioDifference,                !- Zone Latent Cooling Design Supply Air Humidity Ratio Input Method
  ,                                       !- Zone Dehumidification Design Supply Air Humidity Ratio {kgWater/kgDryAir}
  0.005,                                  !- Zone Cooling Design Supply Air Humidity Ratio Difference {kgWater/kgDryAir}
  HumidityRatioDifference,                !- Zone Latent Heating Design Supply Air Humidity Ratio Input Method
  ,                                       !- Zone Humidification Design Supply Air Humidity Ratio {kgWater/kgDryAir}
  0.005,                                  !- Zone Humidification Design Supply Air Humidity Ratio Difference {kgWater/kgDryAir}
  ,                                       !- Zone Humidistat Dehumidification Set Point Schedule Name
  ,                                       !- Zone Humidistat Humidification Set Point Schedule Name
  ,                                       !- Design Zone Air Distribution Effectiveness in Cooling Mode
  ,                                       !- Design Zone Air Distribution Effectiveness in Heating Mode
  ,                                       !- Design Zone Secondary Recirculation Fraction {dimensionless}
  ,                                       !- Design Minimum Zone Ventilation Efficiency {dimensionless}
  Coincident;                             !- Sizing Option

OS:ZoneHVAC:EquipmentList,
  {0f1c811b-fd6b-460e-a136-b60af14f0445}, !- Handle
  Zone HVAC Equipment List 1,             !- Name
  {b6df6341-40c7-4c7b-8fb9-8b9b251160c6}, !- Thermal Zone
  ,                                       !- Load Distribution Scheme
  {9be92c45-6c60-48d7-9328-3dc15aee2209}, !- Zone Equipment 1
  1,                                      !- Zone Equipment Cooling Sequence 1
  1,                                      !- Zone Equipment Heating or No-Load Sequence 1
  {26f2187c-8bae-494e-8f73-520528ad7e83}, !- Zone Equipment Sequential Cooling Fraction Schedule Name 1
  {b61ac115-7478-4f7c-9d21-009ad41a7d8e}; !- Zone Equipment Sequential Heating Fraction Schedule Name 1

OS:AdditionalProperties,
  {93b33f6f-c263-4667-8307-42376d0bedae}, !- Handle
  {b6df6341-40c7-4c7b-8fb9-8b9b251160c6}, !- Object Name
  ObjectType,                             !- Feature Name 1
  String,                                 !- Feature Data Type 1
  conditioned space;                      !- Feature Value 1

OS:Space,
  {b0bf8970-4856-46b1-b9d2-3419981b05c0}, !- Handle
  conditioned space 1,                    !- Name
  ,                                       !- Space Type Name
  ,                                       !- Default Construction Set Name
  ,                                       !- Default Schedule Set Name
  ,                                       !- Direction of Relative North {deg}
  ,                                       !- X Origin {m}
  ,                                       !- Y Origin {m}
  ,                                       !- Z Origin {m}
  ,                                       !- Building Story Name
  {b6df6341-40c7-4c7b-8fb9-8b9b251160c6}, !- Thermal Zone Name
  ,                                       !- Part of Total Floor Area
  ,                                       !- Design Specification Outdoor Air Object Name
  ,                                       !- Building Unit Name
  692.06373070848;                        !- Volume {m3}

OS:Schedule:Ruleset,
  {723f9944-d1fa-46da-a3c2-e26924ed0f22}, !- Handle
  heating setpoint,                       !- Name
  {615f1c28-3b09-4029-9eed-ce13cf53c93b}, !- Schedule Type Limits Name
  {2413e0f8-7f94-4b3d-8093-30d8cfc5fe7c}; !- Default Day Schedule Name

OS:Schedule:Day,
  {2413e0f8-7f94-4b3d-8093-30d8cfc5fe7c}, !- Handle
  heating setpoint default day,           !- Name
  {615f1c28-3b09-4029-9eed-ce13cf53c93b}, !- Schedule Type Limits Name
  ,                                       !- Interpolate to Timestep
  24,                                     !- Hour 1
  0,                                      !- Minute 1
  0;                                      !- Value Until Time 1

OS:Schedule:Rule,
  {26829540-f9a3-4fb6-adb6-54aeb708bd2e}, !- Handle
  heating setpoint allday rule,           !- Name
  {723f9944-d1fa-46da-a3c2-e26924ed0f22}, !- Schedule Ruleset Name
  0,                                      !- Rule Order
  {9ed01a37-2a6b-4112-9bd9-4d7a363f4042}, !- Day Schedule Name
  Yes,                                    !- Apply Sunday
  Yes,                                    !- Apply Monday
  Yes,                                    !- Apply Tuesday
  Yes,                                    !- Apply Wednesday
  Yes,                                    !- Apply Thursday
  Yes,                                    !- Apply Friday
  Yes,                                    !- Apply Saturday
  DateRange,                              !- Date Specification Type
  1,                                      !- Start Month
  1,                                      !- Start Day
  12,                                     !- End Month
  31;                                     !- End Day

OS:Schedule:Day,
  {9ed01a37-2a6b-4112-9bd9-4d7a363f4042}, !- Handle
  heating setpoint day,                   !- Name
  {615f1c28-3b09-4029-9eed-ce13cf53c93b}, !- Schedule Type Limits Name
  ,                                       !- Interpolate to Timestep
  24,                                     !- Hour 1
  0,                                      !- Minute 1
  20;                                     !- Value Until Time 1

OS:Schedule:Ruleset,
  {5e515d5c-5388-4a64-9c33-fa375305a3c9}, !- Handle
  cooling setpoint,                       !- Name
  {615f1c28-3b09-4029-9eed-ce13cf53c93b}, !- Schedule Type Limits Name
  {afcc39c5-ff93-4975-9824-bf9fb8cffd4f}; !- Default Day Schedule Name

OS:Schedule:Day,
  {afcc39c5-ff93-4975-9824-bf9fb8cffd4f}, !- Handle
  cooling setpoint default day,           !- Name
  {615f1c28-3b09-4029-9eed-ce13cf53c93b}, !- Schedule Type Limits Name
  ,                                       !- Interpolate to Timestep
  24,                                     !- Hour 1
  0,                                      !- Minute 1
  0;                                      !- Value Until Time 1

OS:Schedule:Rule,
  {78f1852b-b78d-413d-a9ef-59c4812902d0}, !- Handle
  cooling setpoint allday rule,           !- Name
  {5e515d5c-5388-4a64-9c33-fa375305a3c9}, !- Schedule Ruleset Name
  0,                                      !- Rule Order
  {5d59a180-af5d-488c-9a99-76581c078030}, !- Day Schedule Name
  Yes,                                    !- Apply Sunday
  Yes,                                    !- Apply Monday
  Yes,                                    !- Apply Tuesday
  Yes,                                    !- Apply Wednesday
  Yes,                                    !- Apply Thursday
  Yes,                                    !- Apply Friday
  Yes,                                    !- Apply Saturday
  DateRange,                              !- Date Specification Type
  1,                                      !- Start Month
  1,                                      !- Start Day
  12,                                     !- End Month
  31;                                     !- End Day

OS:Schedule:Day,
  {5d59a180-af5d-488c-9a99-76581c078030}, !- Handle
  cooling setpoint day,                   !- Name
  {615f1c28-3b09-4029-9eed-ce13cf53c93b}, !- Schedule Type Limits Name
  ,                                       !- Interpolate to Timestep
  24,                                     !- Hour 1
  0,                                      !- Minute 1
  25.5555555555556;                       !- Value Until Time 1

OS:ThermostatSetpoint:DualSetpoint,
  {813e6510-d1a6-423f-bdc8-7156c45b2642}, !- Handle
  conditioned space temperature setpoint, !- Name
  {723f9944-d1fa-46da-a3c2-e26924ed0f22}, !- Heating Setpoint Temperature Schedule Name
  {5e515d5c-5388-4a64-9c33-fa375305a3c9}, !- Cooling Setpoint Temperature Schedule Name
  0;                                      !- Temperature Difference Between Cutout And Setpoint {deltaC}

OS:ScheduleTypeLimits,
  {615f1c28-3b09-4029-9eed-ce13cf53c93b}, !- Handle
  Temperature,                            !- Name
  ,                                       !- Lower Limit Value
  ,                                       !- Upper Limit Value
  Continuous,                             !- Numeric Type
  Temperature;                            !- Unit Type

OS:Surface,
  {b1eee7b3-5fbf-4695-af62-90ea0da965de}, !- Handle
  Roof1,                                  !- Name
  RoofCeiling,                            !- Surface Type
  {24b0209c-19d9-438c-ab71-efc29f3c05b6}, !- Construction Name
  {6c5afd8b-e4b2-4d6a-881a-77fc1f332ff6}, !- Space Name
  Outdoors,                               !- Outside Boundary Condition
  ,                                       !- Outside Boundary Condition Object
  SunExposed,                             !- Sun Exposure
  WindExposed,                            !- Wind Exposure
  ,                                       !- View Factor to Ground
  ,                                       !- Number of Vertices
  -26.9347048849634, 58.0557891618865, 2.4384, !- X,Y,Z Vertex 1 {m}
  -26.9347048849634, 46.7895631136661, 8.0715130241102, !- X,Y,Z Vertex 2 {m}
  -14.3386812381136, 46.7895631136661, 8.0715130241102, !- X,Y,Z Vertex 3 {m}
  -14.3386812381136, 58.0557891618865, 2.4384; !- X,Y,Z Vertex 4 {m}

OS:AdditionalProperties,
  {e7e5214a-a518-45a1-befa-bf3940405caf}, !- Handle
  {b1eee7b3-5fbf-4695-af62-90ea0da965de}, !- Object Name
  Length,                                 !- Feature Name 1
  Double,                                 !- Feature Data Type 1
  41.325536899113608,                     !- Feature Value 1
  Width,                                  !- Feature Name 2
  Double,                                 !- Feature Data Type 2
  41.325536899113601,                     !- Feature Value 2
  Azimuth,                                !- Feature Name 3
  Integer,                                !- Feature Data Type 3
  0,                                      !- Feature Value 3
  Tilt,                                   !- Feature Name 4
  Double,                                 !- Feature Data Type 4
  0.5,                                    !- Feature Value 4
  SurfaceType,                            !- Feature Name 5
  String,                                 !- Feature Data Type 5
  Roof;                                   !- Feature Value 5

OS:ThermalZone,
  {88dee76b-b519-487a-a21c-f6be77e376cf}, !- Handle
  attic - vented,                         !- Name
  1,                                      !- Multiplier
  ,                                       !- Ceiling Height {m}
  356.389957095237,                       !- Volume {m3}
  ,                                       !- Floor Area {m2}
  ,                                       !- Zone Inside Convection Algorithm
  ,                                       !- Zone Outside Convection Algorithm
  ,                                       !- Zone Conditioning Equipment List Name
  {08ed8f77-0314-4e2d-92e8-89608e97d413}, !- Zone Air Inlet Port List
  {1742a418-e9fc-4cb9-871a-bb90aa777a4a}, !- Zone Air Exhaust Port List
  {7baf630d-d1f4-4236-bd6a-6d6a1b69bbf0}, !- Zone Air Node Name
  {f5ac8861-de6c-471f-a8f9-7494c72534e9}, !- Zone Return Air Port List
  ,                                       !- Primary Daylighting Control Name
  ,                                       !- Fraction of Zone Controlled by Primary Daylighting Control
  ,                                       !- Secondary Daylighting Control Name
  ,                                       !- Fraction of Zone Controlled by Secondary Daylighting Control
  ,                                       !- Illuminance Map Name
  ,                                       !- Group Rendering Name
  ,                                       !- Thermostat Name
  No;                                     !- Use Ideal Air Loads

OS:Node,
  {e35f5863-7fcf-48ac-ab65-4943f1f6d9ce}, !- Handle
  Node 2,                                 !- Name
  {7baf630d-d1f4-4236-bd6a-6d6a1b69bbf0}, !- Inlet Port
  ;                                       !- Outlet Port

OS:Connection,
  {7baf630d-d1f4-4236-bd6a-6d6a1b69bbf0}, !- Handle
  {88dee76b-b519-487a-a21c-f6be77e376cf}, !- Source Object
  11,                                     !- Outlet Port
  {e35f5863-7fcf-48ac-ab65-4943f1f6d9ce}, !- Target Object
  2;                                      !- Inlet Port

OS:PortList,
  {08ed8f77-0314-4e2d-92e8-89608e97d413}, !- Handle
  {88dee76b-b519-487a-a21c-f6be77e376cf}; !- HVAC Component

OS:PortList,
  {1742a418-e9fc-4cb9-871a-bb90aa777a4a}, !- Handle
  {88dee76b-b519-487a-a21c-f6be77e376cf}; !- HVAC Component

OS:PortList,
  {f5ac8861-de6c-471f-a8f9-7494c72534e9}, !- Handle
  {88dee76b-b519-487a-a21c-f6be77e376cf}; !- HVAC Component

OS:Sizing:Zone,
  {aaae031c-18ce-4056-90ef-d35a099634d8}, !- Handle
  {88dee76b-b519-487a-a21c-f6be77e376cf}, !- Zone or ZoneList Name
  SupplyAirTemperature,                   !- Zone Cooling Design Supply Air Temperature Input Method
  14,                                     !- Zone Cooling Design Supply Air Temperature {C}
  11.11,                                  !- Zone Cooling Design Supply Air Temperature Difference {deltaC}
  SupplyAirTemperature,                   !- Zone Heating Design Supply Air Temperature Input Method
  40,                                     !- Zone Heating Design Supply Air Temperature {C}
  11.11,                                  !- Zone Heating Design Supply Air Temperature Difference {deltaC}
  0.0085,                                 !- Zone Cooling Design Supply Air Humidity Ratio {kg-H2O/kg-air}
  0.008,                                  !- Zone Heating Design Supply Air Humidity Ratio {kg-H2O/kg-air}
  ,                                       !- Zone Heating Sizing Factor
  ,                                       !- Zone Cooling Sizing Factor
  DesignDay,                              !- Cooling Design Air Flow Method
  ,                                       !- Cooling Design Air Flow Rate {m3/s}
  ,                                       !- Cooling Minimum Air Flow per Zone Floor Area {m3/s-m2}
  ,                                       !- Cooling Minimum Air Flow {m3/s}
  ,                                       !- Cooling Minimum Air Flow Fraction
  DesignDay,                              !- Heating Design Air Flow Method
  ,                                       !- Heating Design Air Flow Rate {m3/s}
  ,                                       !- Heating Maximum Air Flow per Zone Floor Area {m3/s-m2}
  ,                                       !- Heating Maximum Air Flow {m3/s}
  ,                                       !- Heating Maximum Air Flow Fraction
  No,                                     !- Account for Dedicated Outdoor Air System
  NeutralSupplyAir,                       !- Dedicated Outdoor Air System Control Strategy
  autosize,                               !- Dedicated Outdoor Air Low Setpoint Temperature for Design {C}
  autosize,                               !- Dedicated Outdoor Air High Setpoint Temperature for Design {C}
  Sensible Load Only No Latent Load,      !- Zone Load Sizing Method
  HumidityRatioDifference,                !- Zone Latent Cooling Design Supply Air Humidity Ratio Input Method
  ,                                       !- Zone Dehumidification Design Supply Air Humidity Ratio {kgWater/kgDryAir}
  0.005,                                  !- Zone Cooling Design Supply Air Humidity Ratio Difference {kgWater/kgDryAir}
  HumidityRatioDifference,                !- Zone Latent Heating Design Supply Air Humidity Ratio Input Method
  ,                                       !- Zone Humidification Design Supply Air Humidity Ratio {kgWater/kgDryAir}
  0.005,                                  !- Zone Humidification Design Supply Air Humidity Ratio Difference {kgWater/kgDryAir}
  ,                                       !- Zone Humidistat Dehumidification Set Point Schedule Name
  ,                                       !- Zone Humidistat Humidification Set Point Schedule Name
  ,                                       !- Design Zone Air Distribution Effectiveness in Cooling Mode
  ,                                       !- Design Zone Air Distribution Effectiveness in Heating Mode
  ,                                       !- Design Zone Secondary Recirculation Fraction {dimensionless}
  ,                                       !- Design Minimum Zone Ventilation Efficiency {dimensionless}
  Coincident;                             !- Sizing Option

OS:ZoneHVAC:EquipmentList,
  {4ad4cd72-fab9-43f3-bdc8-81f2bc636433}, !- Handle
  Zone HVAC Equipment List 2,             !- Name
  {88dee76b-b519-487a-a21c-f6be77e376cf}; !- Thermal Zone

OS:AdditionalProperties,
  {58ce9f50-04a2-4487-9615-a83c1c14d199}, !- Handle
  {88dee76b-b519-487a-a21c-f6be77e376cf}, !- Object Name
  ObjectType,                             !- Feature Name 1
  String,                                 !- Feature Data Type 1
  attic - vented;                         !- Feature Value 1

OS:Space,
  {6c5afd8b-e4b2-4d6a-881a-77fc1f332ff6}, !- Handle
  attic - vented 1,                       !- Name
  ,                                       !- Space Type Name
  ,                                       !- Default Construction Set Name
  ,                                       !- Default Schedule Set Name
  ,                                       !- Direction of Relative North {deg}
  ,                                       !- X Origin {m}
  ,                                       !- Y Origin {m}
  ,                                       !- Z Origin {m}
  ,                                       !- Building Story Name
  {88dee76b-b519-487a-a21c-f6be77e376cf}, !- Thermal Zone Name
  ,                                       !- Part of Total Floor Area
  ,                                       !- Design Specification Outdoor Air Object Name
  ,                                       !- Building Unit Name
  356.389957095237;                       !- Volume {m3}

OS:Material,
  {6c7b53a6-ba4f-40b8-bf6d-df44222c6b46}, !- Handle
  asphalt or fiberglass shingles,         !- Name
  Rough,                                  !- Roughness
  0.00635,                                !- Thickness {m}
  0.162714,                               !- Conductivity {W/m-K}
  1121.4,                                 !- Density {kg/m3}
  1465.45,                                !- Specific Heat {J/kg-K}
  0.9,                                    !- Thermal Absorptance
  0.85,                                   !- Solar Absorptance