
OS:Version,
  {b9c5d66e-45fb-45aa-81ca-db97a64ffeea}, !- Handle
  3.9.0;                                  !- Version Identifier

OS:SimulationControl,
  {9d7a378a-eb0d-456f-a539-8dfc55ae1c03}, !- Handle
  ,                                       !- Do Zone Sizing Calculation
  ,                                       !- Do System Sizing Calculation
  ,                                       !- Do Plant Sizing Calculation
  No;                                     !- Run Simulation for Sizing Periods

OS:Timestep,
  {4cce416a-62e2-43c3-8ba8-af00ee130987}, !- Handle
  1;                                      !- Number of Timesteps per Hour

OS:ShadowCalculation,
  {c66cde57-214e-4b0c-8550-62e71d22b133}, !- Handle
  PolygonClipping,                        !- Shading Calculation Method
  ,                                       !- Shading Calculation Update Frequency Method
  20,                                     !- Shading Calculation Update Frequency
  200,                                    !- Maximum Figures in Shadow Overlap Calculations
  ,                                       !- Polygon Clipping Algorithm
  512,                                    !- Pixel Counting Resolution
  ,                                       !- Sky Diffuse Modeling Algorithm
  No,                                     !- Output External Shading Calculation Results
  No,                                     !- Disable Self-Shading Within Shading Zone Groups
  No;                                     !- Disable Self-Shading From Shading Zone Groups to Other Zones

OS:SurfaceConvectionAlgorithm:Outside,
  {78517a15-d17a-49b7-932d-7ffad71ae66f}, !- Handle
  DOE-2;                                  !- Algorithm

OS:SurfaceConvectionAlgorithm:Inside,
  {3a8eddd9-3c21-4c33-a1ef-bb444d891930}, !- Handle
  TARP;                                   !- Algorithm

OS:ZoneCapacitanceMultiplier:ResearchSpecial,
  {e59d813d-c891-431f-b996-3b5ceb45845c}, !- Handle
  7,                                      !- Temperature Capacity Multiplier
  15,                                     !- Humidity Capacity Multiplier
  ;                                       !- Carbon Dioxide Capacity Multiplier

OS:ConvergenceLimits,
  {224eaf54-98ff-41e3-a5cf-3f08410bbd8c}, !- Handle
  0;                                      !- Minimum System Timestep {minutes}

OS:RunPeriod,
  {67d345e4-affd-4531-afc4-35d57143432a}, !- Handle
  Run Period 1,                           !- Name
  1,                                      !- Begin Month
  1,                                      !- Begin Day of Month
  12,                                     !- End Month
  31,                                     !- End Day of Month
  ,                                       !- Use Weather File Holidays and Special Days
  ,                                       !- Use Weather File Daylight Saving Period
  ,                                       !- Apply Weekend Holiday Rule
  ,                                       !- Use Weather File Rain Indicators
  ,                                       !- Use Weather File Snow Indicators
  ;                                       !- Number of Times Runperiod to be Repeated

OS:PerformancePrecisionTradeoffs,
  {5411ddd3-c073-4617-806f-ddf612a657e9}, !- Handle
  ,                                       !- Use Coil Direct Solutions
  CarrollMRT;                             !- Zone Radiant Exchange Algorithm

OS:WeatherFile,
  {cc7933ad-ece3-4d5f-8520-9861ab69476a}, !- Handle
  Buffalo Niagara Intl Ap,                !- City
  NY,                                     !- State Province Region
  USA,                                    !- Country
  TMY3,                                   !- Data Source
  725280,                                 !- WMO Number
  42.93,                                  !- Latitude {deg}
  -78.73,                                 !- Longitude {deg}
  -5,                                     !- Time Zone {hr}
  215,                                    !- Elevation {m}
  /Users/nmoore/github/urbanopt-example-geojson-project/example_project/weather/USA_NY_Buffalo-Greater.Buffalo.Intl.AP.725280_TMY3.epw, !- Url
  6B50E0FF,                               !- Checksum
  ,                                       !- Start Date Actual Year
  Sunday;                                 !- Start Day of Week

OS:YearDescription,
  {ba90463b-cbe8-4908-9fe8-182da47152a7}, !- Handle
  2007,                                   !- Calendar Year
  ,                                       !- Day of Week for Start Day
  ;                                       !- Is Leap Year

OS:Site,
  {4550b525-228a-4b2e-897b-e3c1c0eb2c45}, !- Handle
  Buffalo Niagara Intl Ap_NY,             !- Name
  42.93,                                  !- Latitude {deg}
  -78.73,                                 !- Longitude {deg}
  -5,                                     !- Time Zone {hr}
  215,                                    !- Elevation {m}
  Suburbs,                                !- Terrain
  Yes;                                    !- Keep Site Location Information

OS:RunPeriodControl:DaylightSavingTime,
  {3ddc2a93-76d1-470a-81d7-d052ef416dff}, !- Handle
  Mar 12,                                 !- Start Date
  Nov 5;                                  !- End Date

OS:Site:GroundTemperature:Shallow,
  {6ddeb610-6c39-46eb-8d36-ccc32985f3aa}, !- Handle
  4.30207395723828,                       !- January Surface Ground Temperature {C}
  2.29327249652502,                       !- February Surface Ground Temperature {C}
  2.13240047156047,                       !- March Surface Ground Temperature {C}
  3.08567940719286,                       !- April Surface Ground Temperature {C}
  6.91256312497526,                       !- May Surface Ground Temperature {C}
  10.7216195949507,                       !- June Surface Ground Temperature {C}
  14.0238679822574,                       !- July Surface Ground Temperature {C}
  16.1157611184724,                       !- August Surface Ground Temperature {C}
  16.2934789303462,                       !- September Surface Ground Temperature {C}
  14.5920754632847,                       !- October Surface Ground Temperature {C}
  11.374036348653,                        !- November Surface Ground Temperature {C}
  7.68182621661674;                       !- December Surface Ground Temperature {C}

OS:ThermalZone,
  {fcb280f8-db8f-46cc-90d4-2663fe998a2c}, !- Handle
  conditioned space,                      !- Name
  1,                                      !- Multiplier
  ,                                       !- Ceiling Height {m}
  692.06373070848,                        !- Volume {m3}
  ,                                       !- Floor Area {m2}
  ,                                       !- Zone Inside Convection Algorithm
  ,                                       !- Zone Outside Convection Algorithm
  ,                                       !- Zone Conditioning Equipment List Name
  {e51d4025-aa23-422d-bd80-ed383ffaf564}, !- Zone Air Inlet Port List
  {2ae7622c-3010-4398-b333-348ddc2ca04f}, !- Zone Air Exhaust Port List
  {1284ec0c-45ad-440f-bc79-f011926b797c}, !- Zone Air Node Name
  {ad3f2e6c-d95e-41ac-afed-fbc8961baed6}, !- Zone Return Air Port List
  ,                                       !- Primary Daylighting Control Name
  ,                                       !- Fraction of Zone Controlled by Primary Daylighting Control
  ,                                       !- Secondary Daylighting Control Name
  ,                                       !- Fraction of Zone Controlled by Secondary Daylighting Control
  ,                                       !- Illuminance Map Name
  ,                                       !- Group Rendering Name
  {e8a0f227-c222-43d8-aed7-f7219be8bef3}, !- Thermostat Name
  No;                                     !- Use Ideal Air Loads

OS:Node,
  {51b313c5-40be-4ac2-abb5-96949837d9dc}, !- Handle
  Node 1,                                 !- Name
  {1284ec0c-45ad-440f-bc79-f011926b797c}, !- Inlet Port
  ;                                       !- Outlet Port

OS:Connection,
  {1284ec0c-45ad-440f-bc79-f011926b797c}, !- Handle
  {fcb280f8-db8f-46cc-90d4-2663fe998a2c}, !- Source Object
  11,                                     !- Outlet Port
  {51b313c5-40be-4ac2-abb5-96949837d9dc}, !- Target Object
  2;                                      !- Inlet Port

OS:PortList,
  {e51d4025-aa23-422d-bd80-ed383ffaf564}, !- Handle
  {fcb280f8-db8f-46cc-90d4-2663fe998a2c}; !- HVAC Component

OS:PortList,
  {2ae7622c-3010-4398-b333-348ddc2ca04f}, !- Handle
  {fcb280f8-db8f-46cc-90d4-2663fe998a2c}; !- HVAC Component

OS:PortList,
  {ad3f2e6c-d95e-41ac-afed-fbc8961baed6}, !- Handle
  {fcb280f8-db8f-46cc-90d4-2663fe998a2c}; !- HVAC Component

OS:Sizing:Zone,
  {0cd09a68-fbe7-4b95-bba9-de1fd1975c48}, !- Handle
  {fcb280f8-db8f-46cc-90d4-2663fe998a2c}, !- Zone or ZoneList Name
  SupplyAirTemperature,                   !- Zone Cooling Design Supply Air Temperature Input Method
  14,                                     !- Zone Cooling Design Supply Air Temperature {C}
  11.11,                                  !- Zone Cooling Design Supply Air Temperature Difference {deltaC}
  SupplyAirTemperature,                   !- Zone Heating Design Supply Air Temperature Input Method
  40,                                     !- Zone Heating Design Supply Air Temperature {C}
  11.11,                                  !- Zone Heating Design Supply Air Temperature Difference {deltaC}
  0.0085,                                 !- Zone Cooling Design Supply Air Humidity Ratio {kg-H2O/kg-air}
  0.008,                                  !- Zone Heating Design Supply Air Humidity Ratio {kg-H2O/kg-air}
  ,                                       !- Zone Heating Sizing Factor
  ,                                       !- Zone Cooling Sizing Factor
  DesignDay,                              !- Cooling Design Air Flow Method
  ,                                       !- Cooling Design Air Flow Rate {m3/s}
  ,                                       !- Cooling Minimum Air Flow per Zone Floor Area {m3/s-m2}
  ,                                       !- Cooling Minimum Air Flow {m3/s}
  ,                                       !- Cooling Minimum Air Flow Fraction
  DesignDay,                              !- Heating Design Air Flow Method
  ,                                       !- Heating Design Air Flow Rate {m3/s}
  ,                                       !- Heating Maximum Air Flow per Zone Floor Area {m3/s-m2}
  ,                                       !- Heating Maximum Air Flow {m3/s}
  ,                                       !- Heating Maximum Air Flow Fraction
  No,                                     !- Account for Dedicated Outdoor Air System
  NeutralSupplyAir,                       !- Dedicated Outdoor Air System Control Strategy
  autosize,                               !- Dedicated Outdoor Air Low Setpoint Temperature for Design {C}
  autosize,                               !- Dedicated Outdoor Air High Setpoint Temperature for Design {C}
  Sensible Load Only No Latent Load,      !- Zone Load Sizing Method
  HumidityRatioDifference,                !- Zone Latent Cooling Design Supply Air Humidity Ratio Input Method
  ,                                       !- Zone Dehumidification Design Supply Air Humidity Ratio {kgWater/kgDryAir}
  0.005,                                  !- Zone Cooling Design Supply Air Humidity Ratio Difference {kgWater/kgDryAir}
  HumidityRatioDifference,                !- Zone Latent Heating Design Supply Air Humidity Ratio Input Method
  ,                                       !- Zone Humidification Design Supply Air Humidity Ratio {kgWater/kgDryAir}
  0.005,                                  !- Zone Humidification Design Supply Air Humidity Ratio Difference {kgWater/kgDryAir}
  ,                                       !- Zone Humidistat Dehumidification Set Point Schedule Name
  ,                                       !- Zone Humidistat Humidification Set Point Schedule Name
  ,                                       !- Design Zone Air Distribution Effectiveness in Cooling Mode
  ,                                       !- Design Zone Air Distribution Effectiveness in Heating Mode
  ,                                       !- Design Zone Secondary Recirculation Fraction {dimensionless}
  ,                                       !- Design Minimum Zone Ventilation Efficiency {dimensionless}
  Coincident;                             !- Sizing Option

OS:ZoneHVAC:EquipmentList,
  {d598374b-b72a-4bad-aa34-6c9e7a371293}, !- Handle
  Zone HVAC Equipment List 1,             !- Name
  {fcb280f8-db8f-46cc-90d4-2663fe998a2c}, !- Thermal Zone
  ,                                       !- Load Distribution Scheme
  {22d09973-cf6a-4acf-82a1-f4642ac37d72}, !- Zone Equipment 1
  1,                                      !- Zone Equipment Cooling Sequence 1
  1,                                      !- Zone Equipment Heating or No-Load Sequence 1
  {09daffac-d82d-4f1b-8bc9-67472b936c82}, !- Zone Equipment Sequential Cooling Fraction Schedule Name 1
  {d01091ab-a60e-4f98-9447-7e8fa763cc91}; !- Zone Equipment Sequential Heating Fraction Schedule Name 1

OS:AdditionalProperties,
  {2c193e4c-20e7-4cc3-a43c-97087881e13a}, !- Handle
  {fcb280f8-db8f-46cc-90d4-2663fe998a2c}, !- Object Name
  ObjectType,                             !- Feature Name 1
  String,                                 !- Feature Data Type 1
  conditioned space;                      !- Feature Value 1

OS:Space,
  {94105d87-219a-47f8-b4b5-ef791a471d7d}, !- Handle
  conditioned space 1,                    !- Name
  ,                                       !- Space Type Name
  ,                                       !- Default Construction Set Name
  ,                                       !- Default Schedule Set Name
  ,                                       !- Direction of Relative North {deg}
  ,                                       !- X Origin {m}
  ,                                       !- Y Origin {m}
  ,                                       !- Z Origin {m}
  ,                                       !- Building Story Name
  {fcb280f8-db8f-46cc-90d4-2663fe998a2c}, !- Thermal Zone Name
  ,                                       !- Part of Total Floor Area
  ,                                       !- Design Specification Outdoor Air Object Name
  ,                                       !- Building Unit Name
  692.06373070848;                        !- Volume {m3}

OS:Schedule:Ruleset,
  {dd4a034d-246c-4393-a5bf-8abfbb83e173}, !- Handle
  heating setpoint,                       !- Name
  {64750cd3-bb47-4375-80f8-bd7348a92089}, !- Schedule Type Limits Name
  {c2b976f9-b5c5-4825-bfc4-ccd24a236607}; !- Default Day Schedule Name

OS:Schedule:Day,
  {c2b976f9-b5c5-4825-bfc4-ccd24a236607}, !- Handle
  heating setpoint default day,           !- Name
  {64750cd3-bb47-4375-80f8-bd7348a92089}, !- Schedule Type Limits Name
  ,                                       !- Interpolate to Timestep
  24,                                     !- Hour 1
  0,                                      !- Minute 1
  0;                                      !- Value Until Time 1

OS:Schedule:Rule,
  {a3d0b6fc-f619-45a8-976c-8527cf5d1aa3}, !- Handle
  heating setpoint allday rule,           !- Name
  {dd4a034d-246c-4393-a5bf-8abfbb83e173}, !- Schedule Ruleset Name
  0,                                      !- Rule Order
  {e8d1c8ce-3990-4f66-84e7-ca2897c67d2d}, !- Day Schedule Name
  Yes,                                    !- Apply Sunday
  Yes,                                    !- Apply Monday
  Yes,                                    !- Apply Tuesday
  Yes,                                    !- Apply Wednesday
  Yes,                                    !- Apply Thursday
  Yes,                                    !- Apply Friday
  Yes,                                    !- Apply Saturday
  DateRange,                              !- Date Specification Type
  1,                                      !- Start Month
  1,                                      !- Start Day
  12,                                     !- End Month
  31;                                     !- End Day

OS:Schedule:Day,
  {e8d1c8ce-3990-4f66-84e7-ca2897c67d2d}, !- Handle
  heating setpoint day,                   !- Name
  {64750cd3-bb47-4375-80f8-bd7348a92089}, !- Schedule Type Limits Name
  ,                                       !- Interpolate to Timestep
  24,                                     !- Hour 1
  0,                                      !- Minute 1
  20;                                     !- Value Until Time 1

OS:Schedule:Ruleset,
  {a6871f93-98e0-4aac-bba6-106d57a8ae2b}, !- Handle
  cooling setpoint,                       !- Name
  {64750cd3-bb47-4375-80f8-bd7348a92089}, !- Schedule Type Limits Name
  {6365081d-4b0f-4524-b180-0c6b9e44f50a}; !- Default Day Schedule Name

OS:Schedule:Day,
  {6365081d-4b0f-4524-b180-0c6b9e44f50a}, !- Handle
  cooling setpoint default day,           !- Name
  {64750cd3-bb47-4375-80f8-bd7348a92089}, !- Schedule Type Limits Name
  ,                                       !- Interpolate to Timestep
  24,                                     !- Hour 1
  0,                                      !- Minute 1
  0;                                      !- Value Until Time 1

OS:Schedule:Rule,
  {58ef3b37-d591-4cb0-8722-176c03337e7f}, !- Handle
  cooling setpoint allday rule,           !- Name
  {a6871f93-98e0-4aac-bba6-106d57a8ae2b}, !- Schedule Ruleset Name
  0,                                      !- Rule Order
  {2bc4e50f-026e-4148-a270-611e2b61c7eb}, !- Day Schedule Name
  Yes,                                    !- Apply Sunday
  Yes,                                    !- Apply Monday
  Yes,                                    !- Apply Tuesday
  Yes,                                    !- Apply Wednesday
  Yes,                                    !- Apply Thursday
  Yes,                                    !- Apply Friday
  Yes,                                    !- Apply Saturday
  DateRange,                              !- Date Specification Type
  1,                                      !- Start Month
  1,                                      !- Start Day
  12,                                     !- End Month
  31;                                     !- End Day

OS:Schedule:Day,
  {2bc4e50f-026e-4148-a270-611e2b61c7eb}, !- Handle
  cooling setpoint day,                   !- Name
  {64750cd3-bb47-4375-80f8-bd7348a92089}, !- Schedule Type Limits Name
  ,                                       !- Interpolate to Timestep
  24,                                     !- Hour 1
  0,                                      !- Minute 1
  25.5555555555556;                       !- Value Until Time 1

OS:ThermostatSetpoint:DualSetpoint,
  {e8a0f227-c222-43d8-aed7-f7219be8bef3}, !- Handle
  conditioned space temperature setpoint, !- Name
  {dd4a034d-246c-4393-a5bf-8abfbb83e173}, !- Heating Setpoint Temperature Schedule Name
  {a6871f93-98e0-4aac-bba6-106d57a8ae2b}, !- Cooling Setpoint Temperature Schedule Name
  0;                                      !- Temperature Difference Between Cutout And Setpoint {deltaC}

OS:ScheduleTypeLimits,
  {64750cd3-bb47-4375-80f8-bd7348a92089}, !- Handle
  Temperature,                            !- Name
  ,                                       !- Lower Limit Value
  ,                                       !- Upper Limit Value
  Continuous,                             !- Numeric Type
  Temperature;                            !- Unit Type

OS:Surface,
  {a4e93cea-a35e-4cbc-91a4-590636b85c23}, !- Handle
  Roof1,                                  !- Name
  RoofCeiling,                            !- Surface Type
  {58541ebc-48a2-4745-ab98-a3edcc7abce1}, !- Construction Name
  {04c6af0b-bcdf-4639-969a-4cb9a4a23c61}, !- Space Name
  Outdoors,                               !- Outside Boundary Condition
  ,                                       !- Outside Boundary Condition Object
  SunExposed,                             !- Sun Exposure
  WindExposed,                            !- Wind Exposure
  ,                                       !- View Factor to Ground
  ,                                       !- Number of Vertices
  -26.9347048849634, 58.0557891618865, 2.4384, !- X,Y,Z Vertex 1 {m}
  -26.9347048849634, 46.7895631136661, 8.0715130241102, !- X,Y,Z Vertex 2 {m}
  -14.3386812381136, 46.7895631136661, 8.0715130241102, !- X,Y,Z Vertex 3 {m}
  -14.3386812381136, 58.0557891618865, 2.4384; !- X,Y,Z Vertex 4 {m}

OS:AdditionalProperties,
  {42f5ad84-c971-4f9c-b40e-c3c5678f5a05}, !- Handle
  {a4e93cea-a35e-4cbc-91a4-590636b85c23}, !- Object Name
  Length,                                 !- Feature Name 1
  Double,                                 !- Feature Data Type 1
  41.325536899113608,                     !- Feature Value 1
  Width,                                  !- Feature Name 2
  Double,                                 !- Feature Data Type 2
  41.325536899113601,                     !- Feature Value 2
  Azimuth,                                !- Feature Name 3
  Integer,                                !- Feature Data Type 3
  0,                                      !- Feature Value 3
  Tilt,                                   !- Feature Name 4
  Double,                                 !- Feature Data Type 4
  0.5,                                    !- Feature Value 4
  SurfaceType,                            !- Feature Name 5
  String,                                 !- Feature Data Type 5
  Roof;                                   !- Feature Value 5

OS:ThermalZone,
  {b69169f7-33d5-4a5d-aacd-22f3aa8ced1c}, !- Handle
  attic - vented,                         !- Name
  1,                                      !- Multiplier
  ,                                       !- Ceiling Height {m}
  356.389957095237,                       !- Volume {m3}
  ,                                       !- Floor Area {m2}
  ,                                       !- Zone Inside Convection Algorithm
  ,                                       !- Zone Outside Convection Algorithm
  ,                                       !- Zone Conditioning Equipment List Name
  {277474be-2db2-4f8d-94da-680a43bf0998}, !- Zone Air Inlet Port List
  {f44b649f-69a1-47c1-b8b6-6a533a066720}, !- Zone Air Exhaust Port List
  {2e4db205-b4eb-4615-b9b9-6a88dc271b90}, !- Zone Air Node Name
  {ed08d0a4-2a0f-4eeb-ae4e-484dee0e5e3b}, !- Zone Return Air Port List
  ,                                       !- Primary Daylighting Control Name
  ,                                       !- Fraction of Zone Controlled by Primary Daylighting Control
  ,                                       !- Secondary Daylighting Control Name
  ,                                       !- Fraction of Zone Controlled by Secondary Daylighting Control
  ,                                       !- Illuminance Map Name
  ,                                       !- Group Rendering Name
  ,                                       !- Thermostat Name
  No;                                     !- Use Ideal Air Loads

OS:Node,
  {be827c20-2c2b-4fe1-8290-0aea66e4c9fd}, !- Handle
  Node 2,                                 !- Name
  {2e4db205-b4eb-4615-b9b9-6a88dc271b90}, !- Inlet Port
  ;                                       !- Outlet Port

OS:Connection,
  {2e4db205-b4eb-4615-b9b9-6a88dc271b90}, !- Handle
  {b69169f7-33d5-4a5d-aacd-22f3aa8ced1c}, !- Source Object
  11,                                     !- Outlet Port
  {be827c20-2c2b-4fe1-8290-0aea66e4c9fd}, !- Target Object
  2;                                      !- Inlet Port

OS:PortList,
  {277474be-2db2-4f8d-94da-680a43bf0998}, !- Handle
  {b69169f7-33d5-4a5d-aacd-22f3aa8ced1c}; !- HVAC Component

OS:PortList,
  {f44b649f-69a1-47c1-b8b6-6a533a066720}, !- Handle
  {b69169f7-33d5-4a5d-aacd-22f3aa8ced1c}; !- HVAC Component

OS:PortList,
  {ed08d0a4-2a0f-4eeb-ae4e-484dee0e5e3b}, !- Handle
  {b69169f7-33d5-4a5d-aacd-22f3aa8ced1c}; !- HVAC Component

OS:Sizing:Zone,
  {94e945a0-6b52-4685-9da5-5c68846b7e09}, !- Handle
  {b69169f7-33d5-4a5d-aacd-22f3aa8ced1c}, !- Zone or ZoneList Name
  SupplyAirTemperature,                   !- Zone Cooling Design Supply Air Temperature Input Method
  14,                                     !- Zone Cooling Design Supply Air Temperature {C}
  11.11,                                  !- Zone Cooling Design Supply Air Temperature Difference {deltaC}
  SupplyAirTemperature,                   !- Zone Heating Design Supply Air Temperature Input Method
  40,                                     !- Zone Heating Design Supply Air Temperature {C}
  11.11,                                  !- Zone Heating Design Supply Air Temperature Difference {deltaC}
  0.0085,                                 !- Zone Cooling Design Supply Air Humidity Ratio {kg-H2O/kg-air}
  0.008,                                  !- Zone Heating Design Supply Air Humidity Ratio {kg-H2O/kg-air}
  ,                                       !- Zone Heating Sizing Factor
  ,                                       !- Zone Cooling Sizing Factor
  DesignDay,                              !- Cooling Design Air Flow Method
  ,                                       !- Cooling Design Air Flow Rate {m3/s}
  ,                                       !- Cooling Minimum Air Flow per Zone Floor Area {m3/s-m2}
  ,                                       !- Cooling Minimum Air Flow {m3/s}
  ,                                       !- Cooling Minimum Air Flow Fraction
  DesignDay,                              !- Heating Design Air Flow Method
  ,                                       !- Heating Design Air Flow Rate {m3/s}
  ,                                       !- Heating Maximum Air Flow per Zone Floor Area {m3/s-m2}
  ,                                       !- Heating Maximum Air Flow {m3/s}
  ,                                       !- Heating Maximum Air Flow Fraction
  No,                                     !- Account for Dedicated Outdoor Air System
  NeutralSupplyAir,                       !- Dedicated Outdoor Air System Control Strategy
  autosize,                               !- Dedicated Outdoor Air Low Setpoint Temperature for Design {C}
  autosize,                               !- Dedicated Outdoor Air High Setpoint Temperature for Design {C}
  Sensible Load Only No Latent Load,      !- Zone Load Sizing Method
  HumidityRatioDifference,                !- Zone Latent Cooling Design Supply Air Humidity Ratio Input Method
  ,                                       !- Zone Dehumidification Design Supply Air Humidity Ratio {kgWater/kgDryAir}
  0.005,                                  !- Zone Cooling Design Supply Air Humidity Ratio Difference {kgWater/kgDryAir}
  HumidityRatioDifference,                !- Zone Latent Heating Design Supply Air Humidity Ratio Input Method
  ,                                       !- Zone Humidification Design Supply Air Humidity Ratio {kgWater/kgDryAir}
  0.005,                                  !- Zone Humidification Design Supply Air Humidity Ratio Difference {kgWater/kgDryAir}
  ,                                       !- Zone Humidistat Dehumidification Set Point Schedule Name
  ,                                       !- Zone Humidistat Humidification Set Point Schedule Name
  ,                                       !- Design Zone Air Distribution Effectiveness in Cooling Mode
  ,                                       !- Design Zone Air Distribution Effectiveness in Heating Mode
  ,                                       !- Design Zone Secondary Recirculation Fraction {dimensionless}
  ,                                       !- Design Minimum Zone Ventilation Efficiency {dimensionless}
  Coincident;                             !- Sizing Option

OS:ZoneHVAC:EquipmentList,
  {20382b85-262c-46fc-af9b-e5e3339fed97}, !- Handle
  Zone HVAC Equipment List 2,             !- Name
  {b69169f7-33d5-4a5d-aacd-22f3aa8ced1c}; !- Thermal Zone

OS:AdditionalProperties,
  {19084f3b-e823-43dd-b325-2955d3ad2b1d}, !- Handle
  {b69169f7-33d5-4a5d-aacd-22f3aa8ced1c}, !- Object Name
  ObjectType,                             !- Feature Name 1
  String,                                 !- Feature Data Type 1
  attic - vented;                         !- Feature Value 1

OS:Space,
  {04c6af0b-bcdf-4639-969a-4cb9a4a23c61}, !- Handle
  attic - vented 1,                       !- Name
  ,                                       !- Space Type Name
  ,                                       !- Default Construction Set Name
  ,                                       !- Default Schedule Set Name
  ,                                       !- Direction of Relative North {deg}
  ,                                       !- X Origin {m}
  ,                                       !- Y Origin {m}
  ,                                       !- Z Origin {m}
  ,                                       !- Building Story Name
  {b69169f7-33d5-4a5d-aacd-22f3aa8ced1c}, !- Thermal Zone Name
  ,                                       !- Part of Total Floor Area
  ,                                       !- Design Specification Outdoor Air Object Name
  ,                                       !- Building Unit Name
  356.389957095237;                       !- Volume {m3}

OS:Material,
  {2542d1c8-7916-4b99-aad4-881e9127d991}, !- Handle
  asphalt or fiberglass shingles,         !- Name
  Rough,                                  !- Roughness
  0.00635,                                !- Thickness {m}
  0.162714,                               !- Conductivity {W/m-K}
  1121.4,                                 !- Density {kg/m3}
  1465.45,                                !- Specific Heat {J/kg-K}
  0.9,                                    !- Thermal Absorptance
  0.85,                                   !- Solar Absorptance
  0.85;                                   !- Visible Absorptance

OS:Material,
  {17e12c92-72fc-4e5c-92d7-3f97d62324c0}, !- Handle