
OS:Version,
  {60069953-a432-43b1-b220-855ec2b2183f}, !- Handle
  3.10.0;                                 !- Version Identifier

OS:SimulationControl,
  {a87d73e8-4b05-4dcb-a318-64d32eb284dc}, !- Handle
  ,                                       !- Do Zone Sizing Calculation
  ,                                       !- Do System Sizing Calculation
  ,                                       !- Do Plant Sizing Calculation
  No;                                     !- Run Simulation for Sizing Periods

OS:Timestep,
  {077cb112-e125-4a24-90c0-5f16c20aeba5}, !- Handle
  1;                                      !- Number of Timesteps per Hour

OS:ShadowCalculation,
  {79aab2cb-bba3-416e-acbf-abe86591078f}, !- Handle
  PolygonClipping,                        !- Shading Calculation Method
  ,                                       !- Shading Calculation Update Frequency Method
  20,                                     !- Shading Calculation Update Frequency
  200,                                    !- Maximum Figures in Shadow Overlap Calculations
  ,                                       !- Polygon Clipping Algorithm
  512,                                    !- Pixel Counting Resolution
  ,                                       !- Sky Diffuse Modeling Algorithm
  No,                                     !- Output External Shading Calculation Results
  No,                                     !- Disable Self-Shading Within Shading Zone Groups
  No;                                     !- Disable Self-Shading From Shading Zone Groups to Other Zones

OS:SurfaceConvectionAlgorithm:Outside,
  {c1ee0921-f7c6-4519-b01c-38c398f09643}, !- Handle
  DOE-2;                                  !- Algorithm

OS:SurfaceConvectionAlgorithm:Inside,
  {b1dfcfc6-af7b-4a9d-a64b-8092e832bc0e}, !- Handle
  TARP;                                   !- Algorithm

OS:ZoneCapacitanceMultiplier:ResearchSpecial,
  {f9647ea9-3ab4-4f86-8679-8fd46a5142a5}, !- Handle
  7,                                      !- Temperature Capacity Multiplier
  15,                                     !- Humidity Capacity Multiplier
  ;                                       !- Carbon Dioxide Capacity Multiplier

OS:ConvergenceLimits,
  {832b22c7-d6d3-4768-8192-e28c986d2861}, !- Handle
  0;                                      !- Minimum System Timestep {minutes}

OS:RunPeriod,
  {fa0fbc46-7d72-4ff7-9b88-b143a267622e}, !- Handle
  Run Period 1,                           !- Name
  1,                                      !- Begin Month
  1,                                      !- Begin Day of Month
  12,                                     !- End Month
  31,                                     !- End Day of Month
  ,                                       !- Use Weather File Holidays and Special Days
  ,                                       !- Use Weather File Daylight Saving Period
  ,                                       !- Apply Weekend Holiday Rule
  ,                                       !- Use Weather File Rain Indicators
  ,                                       !- Use Weather File Snow Indicators
  ;                                       !- Number of Times Runperiod to be Repeated

OS:PerformancePrecisionTradeoffs,
  {37c7550b-3292-41d2-beab-66725f899ebb}, !- Handle
  ,                                       !- Use Coil Direct Solutions
  CarrollMRT;                             !- Zone Radiant Exchange Algorithm

OS:WeatherFile,
  {030089dd-ee68-47aa-ad49-18186d42dcb2}, !- Handle
  Buffalo Niagara Intl Ap,                !- City
  NY,                                     !- State Province Region
  USA,                                    !- Country
  TMY3,                                   !- Data Source
  725280,                                 !- WMO Number
  42.93,                                  !- Latitude {deg}
  -78.73,                                 !- Longitude {deg}
  -5,                                     !- Time Zone {hr}
  215,                                    !- Elevation {m}
  /Users/nmoore/github/urbanopt-example-geojson-project/example_project/weather/USA_NY_Buffalo-Greater.Buffalo.Intl.AP.725280_TMY3.epw, !- Url
  6B50E0FF,                               !- Checksum
  ,                                       !- Start Date Actual Year
  Sunday;                                 !- Start Day of Week

OS:YearDescription,
  {7052345d-9008-468b-92fa-63083f3919ca}, !- Handle
  2007,                                   !- Calendar Year
  ,                                       !- Day of Week for Start Day
  ;                                       !- Is Leap Year

OS:Site,
  {be2a8444-e20c-4f4d-b946-53fd2524698c}, !- Handle
  Buffalo Niagara Intl Ap_NY,             !- Name
  42.93,                                  !- Latitude {deg}
  -78.73,                                 !- Longitude {deg}
  -5,                                     !- Time Zone {hr}
  215,                                    !- Elevation {m}
  Suburbs,                                !- Terrain
  Yes;                                    !- Keep Site Location Information

OS:RunPeriodControl:DaylightSavingTime,
  {4da9f816-4393-42a7-8009-7806510f425f}, !- Handle
  Mar 12,                                 !- Start Date
  Nov 5;                                  !- End Date

OS:Site:GroundTemperature:Shallow,
  {17f3123b-0550-4783-9cac-231996bc77b0}, !- Handle
  4.30207395723828,                       !- January Surface Ground Temperature {C}
  2.29327249652502,                       !- February Surface Ground Temperature {C}
  2.13240047156047,                       !- March Surface Ground Temperature {C}
  3.08567940719286,                       !- April Surface Ground Temperature {C}
  6.91256312497526,                       !- May Surface Ground Temperature {C}
  10.7216195949507,                       !- June Surface Ground Temperature {C}
  14.0238679822574,                       !- July Surface Ground Temperature {C}
  16.1157611184724,                       !- August Surface Ground Temperature {C}
  16.2934789303462,                       !- September Surface Ground Temperature {C}
  14.5920754632847,                       !- October Surface Ground Temperature {C}
  11.374036348653,                        !- November Surface Ground Temperature {C}
  7.68182621661674;                       !- December Surface Ground Temperature {C}

OS:ThermalZone,
  {81dd5fa6-0c82-42cd-ba9b-cc41fd2cc3ca}, !- Handle
  conditioned space,                      !- Name
  1,                                      !- Multiplier
  ,                                       !- Ceiling Height {m}
  692.06373070848,                        !- Volume {m3}
  ,                                       !- Floor Area {m2}
  ,                                       !- Zone Inside Convection Algorithm
  ,                                       !- Zone Outside Convection Algorithm
  ,                                       !- Zone Conditioning Equipment List Name
  {5007f5dc-78dc-4283-b9f0-5728e34423ae}, !- Zone Air Inlet Port List
  {107b808b-5760-49eb-8cd4-eedd69ad4348}, !- Zone Air Exhaust Port List
  {4591052e-eafe-40d4-b1d5-a0f41a0b2194}, !- Zone Air Node Name
  {b1f6c5fd-8758-43f8-bfd0-87d63a93ce2b}, !- Zone Return Air Port List
  ,                                       !- Primary Daylighting Control Name
  ,                                       !- Fraction of Zone Controlled by Primary Daylighting Control
  ,                                       !- Secondary Daylighting Control Name
  ,                                       !- Fraction of Zone Controlled by Secondary Daylighting Control
  ,                                       !- Illuminance Map Name
  ,                                       !- Group Rendering Name
  {3503a4df-dec4-492b-a900-95df7a9fcbb0}, !- Thermostat Name
  No;                                     !- Use Ideal Air Loads

OS:Node,
  {0f754812-447c-4571-9c5a-4c292eae6d39}, !- Handle
  Node 1,                                 !- Name
  {4591052e-eafe-40d4-b1d5-a0f41a0b2194}, !- Inlet Port
  ;                                       !- Outlet Port

OS:Connection,
  {4591052e-eafe-40d4-b1d5-a0f41a0b2194}, !- Handle
  {81dd5fa6-0c82-42cd-ba9b-cc41fd2cc3ca}, !- Source Object
  11,                                     !- Outlet Port
  {0f754812-447c-4571-9c5a-4c292eae6d39}, !- Target Object
  2;                                      !- Inlet Port

OS:PortList,
  {5007f5dc-78dc-4283-b9f0-5728e34423ae}, !- Handle
  {81dd5fa6-0c82-42cd-ba9b-cc41fd2cc3ca}; !- HVAC Component

OS:PortList,
  {107b808b-5760-49eb-8cd4-eedd69ad4348}, !- Handle
  {81dd5fa6-0c82-42cd-ba9b-cc41fd2cc3ca}; !- HVAC Component

OS:PortList,
  {b1f6c5fd-8758-43f8-bfd0-87d63a93ce2b}, !- Handle
  {81dd5fa6-0c82-42cd-ba9b-cc41fd2cc3ca}; !- HVAC Component

OS:Sizing:Zone,
  {a39acb7b-bb9f-4d18-b1e1-a2a9732292d5}, !- Handle
  {81dd5fa6-0c82-42cd-ba9b-cc41fd2cc3ca}, !- Zone or ZoneList Name
  SupplyAirTemperature,                   !- Zone Cooling Design Supply Air Temperature Input Method
  14,                                     !- Zone Cooling Design Supply Air Temperature {C}
  11.11,                                  !- Zone Cooling Design Supply Air Temperature Difference {deltaC}
  SupplyAirTemperature,                   !- Zone Heating Design Supply Air Temperature Input Method
  40,                                     !- Zone Heating Design Supply Air Temperature {C}
  11.11,                                  !- Zone Heating Design Supply Air Temperature Difference {deltaC}
  0.0085,                                 !- Zone Cooling Design Supply Air Humidity Ratio {kg-H2O/kg-air}
  0.008,                                  !- Zone Heating Design Supply Air Humidity Ratio {kg-H2O/kg-air}
  ,                                       !- Zone Heating Sizing Factor
  ,                                       !- Zone Cooling Sizing Factor
  DesignDay,                              !- Cooling Design Air Flow Method
  ,                                       !- Cooling Design Air Flow Rate {m3/s}
  ,                                       !- Cooling Minimum Air Flow per Zone Floor Area {m3/s-m2}
  ,                                       !- Cooling Minimum Air Flow {m3/s}
  ,                                       !- Cooling Minimum Air Flow Fraction
  DesignDay,                              !- Heating Design Air Flow Method
  ,                                       !- Heating Design Air Flow Rate {m3/s}
  ,                                       !- Heating Maximum Air Flow per Zone Floor Area {m3/s-m2}
  ,                                       !- Heating Maximum Air Flow {m3/s}
  ,                                       !- Heating Maximum Air Flow Fraction
  No,                                     !- Account for Dedicated Outdoor Air System
  NeutralSupplyAir,                       !- Dedicated Outdoor Air System Control Strategy
  autosize,                               !- Dedicated Outdoor Air Low Setpoint Temperature for Design {C}
  autosize,                               !- Dedicated Outdoor Air High Setpoint Temperature for Design {C}
  Sensible Load Only No Latent Load,      !- Zone Load Sizing Method
  HumidityRatioDifference,                !- Zone Latent Cooling Design Supply Air Humidity Ratio Input Method
  ,                                       !- Zone Dehumidification Design Supply Air Humidity Ratio {kgWater/kgDryAir}
  0.005,                                  !- Zone Cooling Design Supply Air Humidity Ratio Difference {kgWater/kgDryAir}
  HumidityRatioDifference,                !- Zone Latent Heating Design Supply Air Humidity Ratio Input Method
  ,                                       !- Zone Humidification Design Supply Air Humidity Ratio {kgWater/kgDryAir}
  0.005,                                  !- Zone Humidification Design Supply Air Humidity Ratio Difference {kgWater/kgDryAir}
  ,                                       !- Zone Humidistat Dehumidification Set Point Schedule Name
  ,                                       !- Zone Humidistat Humidification Set Point Schedule Name
  ,                                       !- Design Zone Air Distribution Effectiveness in Cooling Mode
  ,                                       !- Design Zone Air Distribution Effectiveness in Heating Mode
  ,                                       !- Design Zone Secondary Recirculation Fraction {dimensionless}
  ,                                       !- Design Minimum Zone Ventilation Efficiency {dimensionless}
  Coincident;                             !- Sizing Option

OS:ZoneHVAC:EquipmentList,
  {c50bcf3e-8713-4ac7-b57d-cb93679af699}, !- Handle
  Zone HVAC Equipment List 1,             !- Name
  {81dd5fa6-0c82-42cd-ba9b-cc41fd2cc3ca}, !- Thermal Zone
  ,                                       !- Load Distribution Scheme
  {4afd3564-b67f-4eeb-91d4-fa6c57f46c3d}, !- Zone Equipment 1
  1,                                      !- Zone Equipment Cooling Sequence 1
  1,                                      !- Zone Equipment Heating or No-Load Sequence 1
  {77e06d4c-67a1-4f44-8bf5-2c8583dd6ea4}, !- Zone Equipment Sequential Cooling Fraction Schedule Name 1
  {6432bcba-4892-4879-9e3f-54c178edeed1}; !- Zone Equipment Sequential Heating Fraction Schedule Name 1

OS:AdditionalProperties,
  {56195182-f787-458e-b535-4822fff6b24a}, !- Handle
  {81dd5fa6-0c82-42cd-ba9b-cc41fd2cc3ca}, !- Object Name
  ObjectType,                             !- Feature Name 1
  String,                                 !- Feature Data Type 1
  conditioned space;                      !- Feature Value 1

OS:Space,
  {3e44b6df-3871-4233-b358-3fddde920fb7}, !- Handle
  conditioned space 1,                    !- Name
  ,                                       !- Space Type Name
  ,                                       !- Default Construction Set Name
  ,                                       !- Default Schedule Set Name
  ,                                       !- Direction of Relative North {deg}
  ,                                       !- X Origin {m}
  ,                                       !- Y Origin {m}
  ,                                       !- Z Origin {m}
  ,                                       !- Building Story Name
  {81dd5fa6-0c82-42cd-ba9b-cc41fd2cc3ca}, !- Thermal Zone Name
  ,                                       !- Part of Total Floor Area
  ,                                       !- Design Specification Outdoor Air Object Name
  ,                                       !- Building Unit Name
  692.06373070848;                        !- Volume {m3}

OS:Schedule:Ruleset,
  {1c1d61d5-e595-4021-8341-ab15818d5aa6}, !- Handle
  heating setpoint,                       !- Name
  {68ece379-6151-409b-8b0e-63819e41e9b2}, !- Schedule Type Limits Name
  {55aadfee-c346-4a84-9323-fc74f8d4cb69}; !- Default Day Schedule Name

OS:Schedule:Day,
  {55aadfee-c346-4a84-9323-fc74f8d4cb69}, !- Handle
  heating setpoint default day,           !- Name
  {68ece379-6151-409b-8b0e-63819e41e9b2}, !- Schedule Type Limits Name
  ,                                       !- Interpolate to Timestep
  24,                                     !- Hour 1
  0,                                      !- Minute 1
  0;                                      !- Value Until Time 1

OS:Schedule:Rule,
  {f4a49bf8-19e0-42d7-8abf-c29b1fc7f135}, !- Handle
  heating setpoint allday rule,           !- Name
  {1c1d61d5-e595-4021-8341-ab15818d5aa6}, !- Schedule Ruleset Name
  0,                                      !- Rule Order
  {1f528e6b-0c54-46d9-8889-2276aad7a17a}, !- Day Schedule Name
  Yes,                                    !- Apply Sunday
  Yes,                                    !- Apply Monday
  Yes,                                    !- Apply Tuesday
  Yes,                                    !- Apply Wednesday
  Yes,                                    !- Apply Thursday
  Yes,                                    !- Apply Friday
  Yes,                                    !- Apply Saturday
  DateRange,                              !- Date Specification Type
  1,                                      !- Start Month
  1,                                      !- Start Day
  12,                                     !- End Month
  31;                                     !- End Day

OS:Schedule:Day,
  {1f528e6b-0c54-46d9-8889-2276aad7a17a}, !- Handle
  heating setpoint day,                   !- Name
  {68ece379-6151-409b-8b0e-63819e41e9b2}, !- Schedule Type Limits Name
  ,                                       !- Interpolate to Timestep
  24,                                     !- Hour 1
  0,                                      !- Minute 1
  20;                                     !- Value Until Time 1

OS:Schedule:Ruleset,
  {965fd4ab-8b72-4757-98c1-05db6598de96}, !- Handle
  cooling setpoint,                       !- Name
  {68ece379-6151-409b-8b0e-63819e41e9b2}, !- Schedule Type Limits Name
  {a1e95367-52c0-45a5-8cbb-5291e4b7390d}; !- Default Day Schedule Name

OS:Schedule:Day,
  {a1e95367-52c0-45a5-8cbb-5291e4b7390d}, !- Handle
  cooling setpoint default day,           !- Name
  {68ece379-6151-409b-8b0e-63819e41e9b2}, !- Schedule Type Limits Name
  ,                                       !- Interpolate to Timestep
  24,                                     !- Hour 1
  0,                                      !- Minute 1
  0;                                      !- Value Until Time 1

OS:Schedule:Rule,
  {654a9d1d-1220-4adb-ae32-1380fee24f3d}, !- Handle
  cooling setpoint allday rule,           !- Name
  {965fd4ab-8b72-4757-98c1-05db6598de96}, !- Schedule Ruleset Name
  0,                                      !- Rule Order
  {63001423-145a-4981-8d22-9c2fbd9e1b56}, !- Day Schedule Name
  Yes,                                    !- Apply Sunday
  Yes,                                    !- Apply Monday
  Yes,                                    !- Apply Tuesday
  Yes,                                    !- Apply Wednesday
  Yes,                                    !- Apply Thursday
  Yes,                                    !- Apply Friday
  Yes,                                    !- Apply Saturday
  DateRange,                              !- Date Specification Type
  1,                                      !- Start Month
  1,                                      !- Start Day
  12,                                     !- End Month
  31;                                     !- End Day

OS:Schedule:Day,
  {63001423-145a-4981-8d22-9c2fbd9e1b56}, !- Handle
  cooling setpoint day,                   !- Name
  {68ece379-6151-409b-8b0e-63819e41e9b2}, !- Schedule Type Limits Name
  ,                                       !- Interpolate to Timestep
  24,                                     !- Hour 1
  0,                                      !- Minute 1
  25.5555555555556;                       !- Value Until Time 1

OS:ThermostatSetpoint:DualSetpoint,
  {3503a4df-dec4-492b-a900-95df7a9fcbb0}, !- Handle
  conditioned space temperature setpoint, !- Name
  {1c1d61d5-e595-4021-8341-ab15818d5aa6}, !- Heating Setpoint Temperature Schedule Name
  {965fd4ab-8b72-4757-98c1-05db6598de96}, !- Cooling Setpoint Temperature Schedule Name
  0;                                      !- Temperature Difference Between Cutout And Setpoint {deltaC}

OS:ScheduleTypeLimits,
  {68ece379-6151-409b-8b0e-63819e41e9b2}, !- Handle
  Temperature,                            !- Name
  ,                                       !- Lower Limit Value
  ,                                       !- Upper Limit Value
  Continuous,                             !- Numeric Type
  Temperature;                            !- Unit Type

OS:Surface,
  {2f8ed563-97b6-4083-8450-e80c021875e9}, !- Handle
  Roof1,                                  !- Name
  RoofCeiling,                            !- Surface Type
  {fa559db8-082b-4a82-ba06-ba3b7b628821}, !- Construction Name
  {310970e6-f5f3-4275-9790-adf445c4d75c}, !- Space Name
  Outdoors,                               !- Outside Boundary Condition
  ,                                       !- Outside Boundary Condition Object
  SunExposed,                             !- Sun Exposure
  WindExposed,                            !- Wind Exposure
  ,                                       !- View Factor to Ground
  ,                                       !- Number of Vertices
  -26.9347048849634, 58.0557891618865, 2.4384, !- X,Y,Z Vertex 1 {m}
  -26.9347048849634, 46.7895631136661, 8.0715130241102, !- X,Y,Z Vertex 2 {m}
  -14.3386812381136, 46.7895631136661, 8.0715130241102, !- X,Y,Z Vertex 3 {m}
  -14.3386812381136, 58.0557891618865, 2.4384; !- X,Y,Z Vertex 4 {m}

OS:AdditionalProperties,
  {dd152d17-b2dc-4f39-a185-82ba50a5f986}, !- Handle
  {2f8ed563-97b6-4083-8450-e80c021875e9}, !- Object Name
  Length,                                 !- Feature Name 1
  Double,                                 !- Feature Data Type 1
  41.325536899113608,                     !- Feature Value 1
  Width,                                  !- Feature Name 2
  Double,                                 !- Feature Data Type 2
  41.325536899113601,                     !- Feature Value 2
  Azimuth,                                !- Feature Name 3
  Integer,                                !- Feature Data Type 3
  0,                                      !- Feature Value 3
  Tilt,                                   !- Feature Name 4
  Double,                                 !- Feature Data Type 4
  0.5,                                    !- Feature Value 4
  SurfaceType,                            !- Feature Name 5
  String,                                 !- Feature Data Type 5
  Roof;                                   !- Feature Value 5

OS:ThermalZone,
  {a6c68735-e984-48b3-a67e-1051788bf6f4}, !- Handle
  attic - vented,                         !- Name
  1,                                      !- Multiplier
  ,                                       !- Ceiling Height {m}
  356.390921899745,                       !- Volume {m3}
  ,                                       !- Floor Area {m2}
  ,                                       !- Zone Inside Convection Algorithm
  ,                                       !- Zone Outside Convection Algorithm
  ,                                       !- Zone Conditioning Equipment List Name
  {74cd0c4a-0ad9-4e24-bad0-e9cd21175a92}, !- Zone Air Inlet Port List
  {bcb3c2ff-1ac9-4149-9cbf-af8ebf50e489}, !- Zone Air Exhaust Port List
  {00619956-f9a6-4de9-aee3-037930b85bdb}, !- Zone Air Node Name
  {42d1fc45-c3ad-4d38-891b-09ebe51a6388}, !- Zone Return Air Port List
  ,                                       !- Primary Daylighting Control Name
  ,                                       !- Fraction of Zone Controlled by Primary Daylighting Control
  ,                                       !- Secondary Daylighting Control Name
  ,                                       !- Fraction of Zone Controlled by Secondary Daylighting Control
  ,                                       !- Illuminance Map Name
  ,                                       !- Group Rendering Name
  ,                                       !- Thermostat Name
  No;                                     !- Use Ideal Air Loads

OS:Node,
  {c01137e5-30d7-4104-8d61-3d18603c9f54}, !- Handle
  Node 2,                                 !- Name
  {00619956-f9a6-4de9-aee3-037930b85bdb}, !- Inlet Port
  ;                                       !- Outlet Port

OS:Connection,
  {00619956-f9a6-4de9-aee3-037930b85bdb}, !- Handle
  {a6c68735-e984-48b3-a67e-1051788bf6f4}, !- Source Object
  11,                                     !- Outlet Port
  {c01137e5-30d7-4104-8d61-3d18603c9f54}, !- Target Object
  2;                                      !- Inlet Port

OS:PortList,
  {74cd0c4a-0ad9-4e24-bad0-e9cd21175a92}, !- Handle
  {a6c68735-e984-48b3-a67e-1051788bf6f4}; !- HVAC Component

OS:PortList,
  {bcb3c2ff-1ac9-4149-9cbf-af8ebf50e489}, !- Handle
  {a6c68735-e984-48b3-a67e-1051788bf6f4}; !- HVAC Component

OS:PortList,
  {42d1fc45-c3ad-4d38-891b-09ebe51a6388}, !- Handle
  {a6c68735-e984-48b3-a67e-1051788bf6f4}; !- HVAC Component

OS:Sizing:Zone,
  {4155d676-973f-47ae-8b92-b4370d074145}, !- Handle
  {a6c68735-e984-48b3-a67e-1051788bf6f4}, !- Zone or ZoneList Name
  SupplyAirTemperature,                   !- Zone Cooling Design Supply Air Temperature Input Method
  14,                                     !- Zone Cooling Design Supply Air Temperature {C}
  11.11,                                  !- Zone Cooling Design Supply Air Temperature Difference {deltaC}
  SupplyAirTemperature,                   !- Zone Heating Design Supply Air Temperature Input Method
  40,                                     !- Zone Heating Design Supply Air Temperature {C}
  11.11,                                  !- Zone Heating Design Supply Air Temperature Difference {deltaC}
  0.0085,                                 !- Zone Cooling Design Supply Air Humidity Ratio {kg-H2O/kg-air}
  0.008,                                  !- Zone Heating Design Supply Air Humidity Ratio {kg-H2O/kg-air}
  ,                                       !- Zone Heating Sizing Factor
  ,                                       !- Zone Cooling Sizing Factor
  DesignDay,                              !- Cooling Design Air Flow Method
  ,                                       !- Cooling Design Air Flow Rate {m3/s}
  ,                                       !- Cooling Minimum Air Flow per Zone Floor Area {m3/s-m2}
  ,                                       !- Cooling Minimum Air Flow {m3/s}
  ,                                       !- Cooling Minimum Air Flow Fraction
  DesignDay,                              !- Heating Design Air Flow Method
  ,                                       !- Heating Design Air Flow Rate {m3/s}
  ,                                       !- Heating Maximum Air Flow per Zone Floor Area {m3/s-m2}
  ,                                       !- Heating Maximum Air Flow {m3/s}
  ,                                       !- Heating Maximum Air Flow Fraction
  No,                                     !- Account for Dedicated Outdoor Air System
  NeutralSupplyAir,                       !- Dedicated Outdoor Air System Control Strategy
  autosize,                               !- Dedicated Outdoor Air Low Setpoint Temperature for Design {C}
  autosize,                               !- Dedicated Outdoor Air High Setpoint Temperature for Design {C}
  Sensible Load Only No Latent Load,      !- Zone Load Sizing Method
  HumidityRatioDifference,                !- Zone Latent Cooling Design Supply Air Humidity Ratio Input Method
  ,                                       !- Zone Dehumidification Design Supply Air Humidity Ratio {kgWater/kgDryAir}
  0.005,                                  !- Zone Cooling Design Supply Air Humidity Ratio Difference {kgWater/kgDryAir}
  HumidityRatioDifference,                !- Zone Latent Heating Design Supply Air Humidity Ratio Input Method
  ,                                       !- Zone Humidification Design Supply Air Humidity Ratio {kgWater/kgDryAir}
  0.005,                                  !- Zone Humidification Design Supply Air Humidity Ratio Difference {kgWater/kgDryAir}
  ,                                       !- Zone Humidistat Dehumidification Set Point Schedule Name
  ,                                       !- Zone Humidistat Humidification Set Point Schedule Name
  ,                                       !- Design Zone Air Distribution Effectiveness in Cooling Mode
  ,                                       !- Design Zone Air Distribution Effectiveness in Heating Mode
  ,                                       !- Design Zone Secondary Recirculation Fraction {dimensionless}
  ,                                       !- Design Minimum Zone Ventilation Efficiency {dimensionless}
  Coincident;                             !- Sizing Option

OS:ZoneHVAC:EquipmentList,
  {205ba288-9bfd-4675-9289-3f43ab195dfe}, !- Handle
  Zone HVAC Equipment List 2,             !- Name
  {a6c68735-e984-48b3-a67e-1051788bf6f4}; !- Thermal Zone

OS:AdditionalProperties,
  {9208fe3e-143a-43aa-8104-dad1380315d3}, !- Handle
  {a6c68735-e984-48b3-a67e-1051788bf6f4}, !- Object Name
  ObjectType,                             !- Feature Name 1
  String,                                 !- Feature Data Type 1
  attic - vented;                         !- Feature Value 1

OS:Space,
  {310970e6-f5f3-4275-9790-adf445c4d75c}, !- Handle
  attic - vented 1,                       !- Name
  ,                                       !- Space Type Name
  ,                                       !- Default Construction Set Name
  ,                                       !- Default Schedule Set Name
  ,                                       !- Direction of Relative North {deg}
  ,                                       !- X Origin {m}
  ,                                       !- Y Origin {m}
  ,                                       !- Z Origin {m}
  ,                                       !- Building Story Name
  {a6c68735-e984-48b3-a67e-1051788bf6f4}, !- Thermal Zone Name
  ,                                       !- Part of Total Floor Area
  ,                                       !- Design Specification Outdoor Air Object Name
  ,                                       !- Building Unit Name
  356.390921899745;                       !- Volume {m3}

OS:Material,
  {52336d28-db19-4b5d-b8eb-c99219c85de1}, !- Handle
  asphalt or fiberglass shingles,         !- Name
  Rough,                                  !- Roughness
  0.00635,                                !- Thickness {m}
  0.162714,                               !- Conductivity {W/m-K}
  1121.4,                                 !- Density {kg/m3}
  1465.45,                                !- Specific Heat {J/kg-K}
  0.9,                                    !- Thermal Absorptance
  0.85,                                   !- Solar Absorptance
  0.85;                                   !- Visible Absorptance

OS:Material,
  {f50832e5-f182-4dc4-a864-f6018702dead}, !- Handle