
OS:Version,
  {68d447fa-1e8e-4afc-bd63-78be1232a810}, !- Handle
  3.9.0;                                  !- Version Identifier

OS:SimulationControl,
  {0a76a396-b1a0-4864-baab-0206258b6a92}, !- Handle
  ,                                       !- Do Zone Sizing Calculation
  ,                                       !- Do System Sizing Calculation
  ,                                       !- Do Plant Sizing Calculation
  No;                                     !- Run Simulation for Sizing Periods

OS:Timestep,
  {cb6f70e7-f01c-4505-afad-5a0cbf2a5c2f}, !- Handle
  1;                                      !- Number of Timesteps per Hour

OS:ShadowCalculation,
  {49403bab-eb65-4032-a5db-866a16322fa9}, !- Handle
  PolygonClipping,                        !- Shading Calculation Method
  ,                                       !- Shading Calculation Update Frequency Method
  20,                                     !- Shading Calculation Update Frequency
  200,                                    !- Maximum Figures in Shadow Overlap Calculations
  ,                                       !- Polygon Clipping Algorithm
  512,                                    !- Pixel Counting Resolution
  ,                                       !- Sky Diffuse Modeling Algorithm
  No,                                     !- Output External Shading Calculation Results
  No,                                     !- Disable Self-Shading Within Shading Zone Groups
  No;                                     !- Disable Self-Shading From Shading Zone Groups to Other Zones

OS:SurfaceConvectionAlgorithm:Outside,
  {40319572-e2ab-464b-a4ff-42a8ce1e63c3}, !- Handle
  DOE-2;                                  !- Algorithm

OS:SurfaceConvectionAlgorithm:Inside,
  {aa564668-e4cf-44dd-a7f4-99e016c17e96}, !- Handle
  TARP;                                   !- Algorithm

OS:ZoneCapacitanceMultiplier:ResearchSpecial,
  {39371d01-55b4-46e4-b14d-28aef47ad11c}, !- Handle
  7,                                      !- Temperature Capacity Multiplier
  15,                                     !- Humidity Capacity Multiplier
  ;                                       !- Carbon Dioxide Capacity Multiplier

OS:ConvergenceLimits,
  {34b67447-0496-4335-8bd2-30d20f55d206}, !- Handle
  0;                                      !- Minimum System Timestep {minutes}

OS:RunPeriod,
  {ad73bbda-071c-4989-bfe1-b4c78a13cef6}, !- Handle
  Run Period 1,                           !- Name
  1,                                      !- Begin Month
  1,                                      !- Begin Day of Month
  12,                                     !- End Month
  31,                                     !- End Day of Month
  ,                                       !- Use Weather File Holidays and Special Days
  ,                                       !- Use Weather File Daylight Saving Period
  ,                                       !- Apply Weekend Holiday Rule
  ,                                       !- Use Weather File Rain Indicators
  ,                                       !- Use Weather File Snow Indicators
  ;                                       !- Number of Times Runperiod to be Repeated

OS:PerformancePrecisionTradeoffs,
  {783ae616-bdd6-4f3b-abe3-1096cb271450}, !- Handle
  ,                                       !- Use Coil Direct Solutions
  CarrollMRT;                             !- Zone Radiant Exchange Algorithm

OS:WeatherFile,
  {2af35f82-7f04-4a9d-b4b6-c17dc6b75742}, !- Handle
  Buffalo Niagara Intl Ap,                !- City
  NY,                                     !- State Province Region
  USA,                                    !- Country
  TMY3,                                   !- Data Source
  725280,                                 !- WMO Number
  42.93,                                  !- Latitude {deg}
  -78.73,                                 !- Longitude {deg}
  -5,                                     !- Time Zone {hr}
  215,                                    !- Elevation {m}
  /Users/nmoore/github/urbanopt-example-geojson-project/example_project/weather/USA_NY_Buffalo-Greater.Buffalo.Intl.AP.725280_TMY3.epw, !- Url
  6B50E0FF,                               !- Checksum
  ,                                       !- Start Date Actual Year
  Sunday;                                 !- Start Day of Week

OS:YearDescription,
  {b592e951-73a2-4b68-bb5e-6a0eab393e18}, !- Handle
  2007,                                   !- Calendar Year
  ,                                       !- Day of Week for Start Day
  ;                                       !- Is Leap Year

OS:Site,
  {2cbfc15d-756b-4807-ac7e-63735cc36524}, !- Handle
  Buffalo Niagara Intl Ap_NY,             !- Name
  42.93,                                  !- Latitude {deg}
  -78.73,                                 !- Longitude {deg}
  -5,                                     !- Time Zone {hr}
  215,                                    !- Elevation {m}
  Suburbs,                                !- Terrain
  Yes;                                    !- Keep Site Location Information

OS:RunPeriodControl:DaylightSavingTime,
  {9cc0a785-5c64-4195-8e8a-43f778299ad4}, !- Handle
  Mar 12,                                 !- Start Date
  Nov 5;                                  !- End Date

OS:Site:GroundTemperature:Shallow,
  {7a776d25-ba26-458d-bd2e-a1eeeadd6db8}, !- Handle
  4.30207395723828,                       !- January Surface Ground Temperature {C}
  2.29327249652502,                       !- February Surface Ground Temperature {C}
  2.13240047156047,                       !- March Surface Ground Temperature {C}
  3.08567940719286,                       !- April Surface Ground Temperature {C}
  6.91256312497526,                       !- May Surface Ground Temperature {C}
  10.7216195949507,                       !- June Surface Ground Temperature {C}
  14.0238679822574,                       !- July Surface Ground Temperature {C}
  16.1157611184724,                       !- August Surface Ground Temperature {C}
  16.2934789303462,                       !- September Surface Ground Temperature {C}
  14.5920754632847,                       !- October Surface Ground Temperature {C}
  11.374036348653,                        !- November Surface Ground Temperature {C}
  7.68182621661674;                       !- December Surface Ground Temperature {C}

OS:ThermalZone,
  {4ddabd45-9250-4a64-ae57-c2a2fced538c}, !- Handle
  conditioned space,                      !- Name
  1,                                      !- Multiplier
  ,                                       !- Ceiling Height {m}
  951.587629724161,                       !- Volume {m3}
  ,                                       !- Floor Area {m2}
  ,                                       !- Zone Inside Convection Algorithm
  ,                                       !- Zone Outside Convection Algorithm
  ,                                       !- Zone Conditioning Equipment List Name
  {41414a99-c794-4abe-893b-ef84a1d16a0d}, !- Zone Air Inlet Port List
  {06754733-2058-4080-9cd8-fc783871cb4e}, !- Zone Air Exhaust Port List
  {721c14ea-0a64-4c5c-a3f8-0bf8b3ccd312}, !- Zone Air Node Name
  {b2fe9bd3-6496-4186-85e1-475248476ce3}, !- Zone Return Air Port List
  ,                                       !- Primary Daylighting Control Name
  ,                                       !- Fraction of Zone Controlled by Primary Daylighting Control
  ,                                       !- Secondary Daylighting Control Name
  ,                                       !- Fraction of Zone Controlled by Secondary Daylighting Control
  ,                                       !- Illuminance Map Name
  ,                                       !- Group Rendering Name
  {f3d191cd-3b88-4e59-ad5f-9523e7d80202}, !- Thermostat Name
  No;                                     !- Use Ideal Air Loads

OS:Node,
  {3daddfdd-1ab0-411b-9a7f-649186e7ecda}, !- Handle
  Node 1,                                 !- Name
  {721c14ea-0a64-4c5c-a3f8-0bf8b3ccd312}, !- Inlet Port
  ;                                       !- Outlet Port

OS:Connection,
  {721c14ea-0a64-4c5c-a3f8-0bf8b3ccd312}, !- Handle
  {4ddabd45-9250-4a64-ae57-c2a2fced538c}, !- Source Object
  11,                                     !- Outlet Port
  {3daddfdd-1ab0-411b-9a7f-649186e7ecda}, !- Target Object
  2;                                      !- Inlet Port

OS:PortList,
  {41414a99-c794-4abe-893b-ef84a1d16a0d}, !- Handle
  {4ddabd45-9250-4a64-ae57-c2a2fced538c}, !- HVAC Component
  {ebd5ee7c-4f91-40f9-9ad9-21899fc287cf}; !- Port 1

OS:PortList,
  {06754733-2058-4080-9cd8-fc783871cb4e}, !- Handle
  {4ddabd45-9250-4a64-ae57-c2a2fced538c}; !- HVAC Component

OS:PortList,
  {b2fe9bd3-6496-4186-85e1-475248476ce3}, !- Handle
  {4ddabd45-9250-4a64-ae57-c2a2fced538c}, !- HVAC Component
  {2c7e6f22-028d-4d4b-8e52-5cde1344b9b3}; !- Port 1

OS:Sizing:Zone,
  {7e4bbb03-9ebe-447e-b657-7dfca3d59baf}, !- Handle
  {4ddabd45-9250-4a64-ae57-c2a2fced538c}, !- Zone or ZoneList Name
  SupplyAirTemperature,                   !- Zone Cooling Design Supply Air Temperature Input Method
  14,                                     !- Zone Cooling Design Supply Air Temperature {C}
  11.11,                                  !- Zone Cooling Design Supply Air Temperature Difference {deltaC}
  SupplyAirTemperature,                   !- Zone Heating Design Supply Air Temperature Input Method
  40,                                     !- Zone Heating Design Supply Air Temperature {C}
  11.11,                                  !- Zone Heating Design Supply Air Temperature Difference {deltaC}
  0.0085,                                 !- Zone Cooling Design Supply Air Humidity Ratio {kg-H2O/kg-air}
  0.008,                                  !- Zone Heating Design Supply Air Humidity Ratio {kg-H2O/kg-air}
  ,                                       !- Zone Heating Sizing Factor
  ,                                       !- Zone Cooling Sizing Factor
  DesignDay,                              !- Cooling Design Air Flow Method
  ,                                       !- Cooling Design Air Flow Rate {m3/s}
  ,                                       !- Cooling Minimum Air Flow per Zone Floor Area {m3/s-m2}
  ,                                       !- Cooling Minimum Air Flow {m3/s}
  ,                                       !- Cooling Minimum Air Flow Fraction
  DesignDay,                              !- Heating Design Air Flow Method
  ,                                       !- Heating Design Air Flow Rate {m3/s}
  ,                                       !- Heating Maximum Air Flow per Zone Floor Area {m3/s-m2}
  ,                                       !- Heating Maximum Air Flow {m3/s}
  ,                                       !- Heating Maximum Air Flow Fraction
  No,                                     !- Account for Dedicated Outdoor Air System
  NeutralSupplyAir,                       !- Dedicated Outdoor Air System Control Strategy
  autosize,                               !- Dedicated Outdoor Air Low Setpoint Temperature for Design {C}
  autosize,                               !- Dedicated Outdoor Air High Setpoint Temperature for Design {C}
  Sensible Load Only No Latent Load,      !- Zone Load Sizing Method
  HumidityRatioDifference,                !- Zone Latent Cooling Design Supply Air Humidity Ratio Input Method
  ,                                       !- Zone Dehumidification Design Supply Air Humidity Ratio {kgWater/kgDryAir}
  0.005,                                  !- Zone Cooling Design Supply Air Humidity Ratio Difference {kgWater/kgDryAir}
  HumidityRatioDifference,                !- Zone Latent Heating Design Supply Air Humidity Ratio Input Method
  ,                                       !- Zone Humidification Design Supply Air Humidity Ratio {kgWater/kgDryAir}
  0.005,                                  !- Zone Humidification Design Supply Air Humidity Ratio Difference {kgWater/kgDryAir}
  ,                                       !- Zone Humidistat Dehumidification Set Point Schedule Name
  ,                                       !- Zone Humidistat Humidification Set Point Schedule Name
  ,                                       !- Design Zone Air Distribution Effectiveness in Cooling Mode
  ,                                       !- Design Zone Air Distribution Effectiveness in Heating Mode
  ,                                       !- Design Zone Secondary Recirculation Fraction {dimensionless}
  ,                                       !- Design Minimum Zone Ventilation Efficiency {dimensionless}
  Coincident;                             !- Sizing Option

OS:ZoneHVAC:EquipmentList,
  {6c2619f9-9441-4d85-a326-7b8a68f0b4db}, !- Handle
  Zone HVAC Equipment List 1,             !- Name
  {4ddabd45-9250-4a64-ae57-c2a2fced538c}, !- Thermal Zone
  ,                                       !- Load Distribution Scheme
  {69a05e7f-d77f-4500-99e3-93a46ce2621d}, !- Zone Equipment 1
  1,                                      !- Zone Equipment Cooling Sequence 1
  1,                                      !- Zone Equipment Heating or No-Load Sequence 1
  {416d42c5-839e-45f1-8578-beae4488bb1c}, !- Zone Equipment Sequential Cooling Fraction Schedule Name 1
  {72fd8719-97ce-4954-89b1-ebfc8cab5bf6}; !- Zone Equipment Sequential Heating Fraction Schedule Name 1

OS:AdditionalProperties,
  {73defa27-dbe4-4ea1-8ffa-74ae52c4cd72}, !- Handle
  {4ddabd45-9250-4a64-ae57-c2a2fced538c}, !- Object Name
  ObjectType,                             !- Feature Name 1
  String,                                 !- Feature Data Type 1
  conditioned space;                      !- Feature Value 1

OS:Space,
  {16daf6d9-67b1-4e7c-b039-87014e2b7133}, !- Handle
  conditioned space 1,                    !- Name
  ,                                       !- Space Type Name
  ,                                       !- Default Construction Set Name
  ,                                       !- Default Schedule Set Name
  ,                                       !- Direction of Relative North {deg}
  ,                                       !- X Origin {m}
  ,                                       !- Y Origin {m}
  ,                                       !- Z Origin {m}
  ,                                       !- Building Story Name
  {4ddabd45-9250-4a64-ae57-c2a2fced538c}, !- Thermal Zone Name
  ,                                       !- Part of Total Floor Area
  ,                                       !- Design Specification Outdoor Air Object Name
  ,                                       !- Building Unit Name
  951.587629724161;                       !- Volume {m3}

OS:Schedule:Ruleset,
  {70aacc38-48a8-4ddd-bb50-6f37b5ec0c79}, !- Handle
  heating setpoint,                       !- Name
  {12daf30d-78f2-4562-9ba0-53e2c9dd4e89}, !- Schedule Type Limits Name
  {f1a2443b-fddb-4f91-b4b3-7f9fed61b51e}; !- Default Day Schedule Name

OS:Schedule:Day,
  {f1a2443b-fddb-4f91-b4b3-7f9fed61b51e}, !- Handle
  heating setpoint default day,           !- Name
  {12daf30d-78f2-4562-9ba0-53e2c9dd4e89}, !- Schedule Type Limits Name
  ,                                       !- Interpolate to Timestep
  24,                                     !- Hour 1
  0,                                      !- Minute 1
  0;                                      !- Value Until Time 1

OS:Schedule:Rule,
  {1f2ee01a-2829-4a78-aeb1-4a8b0975f785}, !- Handle
  heating setpoint allday rule,           !- Name
  {70aacc38-48a8-4ddd-bb50-6f37b5ec0c79}, !- Schedule Ruleset Name
  0,                                      !- Rule Order
  {b294e6a9-31c8-4cab-a71c-672c6a659ad2}, !- Day Schedule Name
  Yes,                                    !- Apply Sunday
  Yes,                                    !- Apply Monday
  Yes,                                    !- Apply Tuesday
  Yes,                                    !- Apply Wednesday
  Yes,                                    !- Apply Thursday
  Yes,                                    !- Apply Friday
  Yes,                                    !- Apply Saturday
  DateRange,                              !- Date Specification Type
  1,                                      !- Start Month
  1,                                      !- Start Day
  12,                                     !- End Month
  31;                                     !- End Day

OS:Schedule:Day,
  {b294e6a9-31c8-4cab-a71c-672c6a659ad2}, !- Handle
  heating setpoint day,                   !- Name
  {12daf30d-78f2-4562-9ba0-53e2c9dd4e89}, !- Schedule Type Limits Name
  ,                                       !- Interpolate to Timestep
  24,                                     !- Hour 1
  0,                                      !- Minute 1
  20;                                     !- Value Until Time 1

OS:Schedule:Ruleset,
  {ba5fd956-a231-4404-8109-11971d3c7114}, !- Handle
  cooling setpoint,                       !- Name
  {12daf30d-78f2-4562-9ba0-53e2c9dd4e89}, !- Schedule Type Limits Name
  {4fbaacb9-2470-4954-aafb-d20bc63cc31b}; !- Default Day Schedule Name

OS:Schedule:Day,
  {4fbaacb9-2470-4954-aafb-d20bc63cc31b}, !- Handle
  cooling setpoint default day,           !- Name
  {12daf30d-78f2-4562-9ba0-53e2c9dd4e89}, !- Schedule Type Limits Name
  ,                                       !- Interpolate to Timestep
  24,                                     !- Hour 1
  0,                                      !- Minute 1
  0;                                      !- Value Until Time 1

OS:Schedule:Rule,
  {c533d34a-7a78-499f-b1b2-e5e8e6d6f28b}, !- Handle
  cooling setpoint allday rule,           !- Name
  {ba5fd956-a231-4404-8109-11971d3c7114}, !- Schedule Ruleset Name
  0,                                      !- Rule Order
  {eef92747-a530-4c58-b24d-65ef48f30a66}, !- Day Schedule Name
  Yes,                                    !- Apply Sunday
  Yes,                                    !- Apply Monday
  Yes,                                    !- Apply Tuesday
  Yes,                                    !- Apply Wednesday
  Yes,                                    !- Apply Thursday
  Yes,                                    !- Apply Friday
  Yes,                                    !- Apply Saturday
  DateRange,                              !- Date Specification Type
  1,                                      !- Start Month
  1,                                      !- Start Day
  12,                                     !- End Month
  31;                                     !- End Day

OS:Schedule:Day,
  {eef92747-a530-4c58-b24d-65ef48f30a66}, !- Handle
  cooling setpoint day,                   !- Name
  {12daf30d-78f2-4562-9ba0-53e2c9dd4e89}, !- Schedule Type Limits Name
  ,                                       !- Interpolate to Timestep
  24,                                     !- Hour 1
  0,                                      !- Minute 1
  25.5555555555556;                       !- Value Until Time 1

OS:ThermostatSetpoint:DualSetpoint,
  {f3d191cd-3b88-4e59-ad5f-9523e7d80202}, !- Handle
  conditioned space temperature setpoint, !- Name
  {70aacc38-48a8-4ddd-bb50-6f37b5ec0c79}, !- Heating Setpoint Temperature Schedule Name
  {ba5fd956-a231-4404-8109-11971d3c7114}, !- Cooling Setpoint Temperature Schedule Name
  0;                                      !- Temperature Difference Between Cutout And Setpoint {deltaC}

OS:ScheduleTypeLimits,
  {12daf30d-78f2-4562-9ba0-53e2c9dd4e89}, !- Handle
  Temperature,                            !- Name
  ,                                       !- Lower Limit Value
  ,                                       !- Upper Limit Value
  Continuous,                             !- Numeric Type
  Temperature;                            !- Unit Type

OS:Surface,
  {5c77d72f-9e6f-42f5-bae2-c011d28e3fa5}, !- Handle
  Roof1,                                  !- Name
  RoofCeiling,                            !- Surface Type
  {703bfd3f-1279-4fa7-87d2-565ac0405563}, !- Construction Name
  {d671312b-3e94-404f-86c2-d6fee9badb80}, !- Space Name
  Outdoors,                               !- Outside Boundary Condition
  ,                                       !- Outside Boundary Condition Object
  SunExposed,                             !- Sun Exposure
  WindExposed,                            !- Wind Exposure
  ,                                       !- View Factor to Ground
  ,                                       !- Number of Vertices
  -26.9347048849634, 58.0557891618865, 2.4384, !- X,Y,Z Vertex 1 {m}
  -26.9347048849634, 46.7895631136661, 8.0715130241102, !- X,Y,Z Vertex 2 {m}
  -14.3386812381136, 46.7895631136661, 8.0715130241102, !- X,Y,Z Vertex 3 {m}
  -14.3386812381136, 58.0557891618865, 2.4384; !- X,Y,Z Vertex 4 {m}

OS:AdditionalProperties,
  {4ee1c001-6d8c-41ae-b579-217227886f88}, !- Handle
  {5c77d72f-9e6f-42f5-bae2-c011d28e3fa5}, !- Object Name
  Length,                                 !- Feature Name 1
  Double,                                 !- Feature Data Type 1
  41.325536899113608,                     !- Feature Value 1
  Width,                                  !- Feature Name 2
  Double,                                 !- Feature Data Type 2
  41.325536899113601,                     !- Feature Value 2
  Azimuth,                                !- Feature Name 3
  Integer,                                !- Feature Data Type 3
  0,                                      !- Feature Value 3
  Tilt,                                   !- Feature Name 4
  Double,                                 !- Feature Data Type 4
  0.5,                                    !- Feature Value 4
  SurfaceType,                            !- Feature Name 5
  String,                                 !- Feature Data Type 5
  Roof;                                   !- Feature Value 5

OS:ThermalZone,
  {7cd13abd-73b4-462d-9707-8e22b66df42f}, !- Handle
  attic - vented,                         !- Name
  1,                                      !- Multiplier
  ,                                       !- Ceiling Height {m}
  356.389957095237,                       !- Volume {m3}
  ,                                       !- Floor Area {m2}
  ,                                       !- Zone Inside Convection Algorithm
  ,                                       !- Zone Outside Convection Algorithm
  ,                                       !- Zone Conditioning Equipment List Name
  {572a7ed6-f5f8-4c2f-be9a-3e1d4030784f}, !- Zone Air Inlet Port List
  {6990f1a1-a155-4c6b-8446-9a5ddb34ba9e}, !- Zone Air Exhaust Port List
  {25c4f644-f0c8-4326-ad59-a12452da6479}, !- Zone Air Node Name
  {276ac167-b443-4afa-8850-a43f1518109d}, !- Zone Return Air Port List
  ,                                       !- Primary Daylighting Control Name
  ,                                       !- Fraction of Zone Controlled by Primary Daylighting Control
  ,                                       !- Secondary Daylighting Control Name
  ,                                       !- Fraction of Zone Controlled by Secondary Daylighting Control
  ,                                       !- Illuminance Map Name
  ,                                       !- Group Rendering Name
  ,                                       !- Thermostat Name
  No;                                     !- Use Ideal Air Loads

OS:Node,
  {ee67b9e3-18af-4bf7-b92b-7108f950f018}, !- Handle
  Node 2,                                 !- Name
  {25c4f644-f0c8-4326-ad59-a12452da6479}, !- Inlet Port
  ;                                       !- Outlet Port

OS:Connection,
  {25c4f644-f0c8-4326-ad59-a12452da6479}, !- Handle
  {7cd13abd-73b4-462d-9707-8e22b66df42f}, !- Source Object
  11,                                     !- Outlet Port
  {ee67b9e3-18af-4bf7-b92b-7108f950f018}, !- Target Object
  2;                                      !- Inlet Port

OS:PortList,
  {572a7ed6-f5f8-4c2f-be9a-3e1d4030784f}, !- Handle
  {7cd13abd-73b4-462d-9707-8e22b66df42f}; !- HVAC Component

OS:PortList,
  {6990f1a1-a155-4c6b-8446-9a5ddb34ba9e}, !- Handle
  {7cd13abd-73b4-462d-9707-8e22b66df42f}; !- HVAC Component

OS:PortList,
  {276ac167-b443-4afa-8850-a43f1518109d}, !- Handle
  {7cd13abd-73b4-462d-9707-8e22b66df42f}; !- HVAC Component

OS:Sizing:Zone,
  {00e77f73-8636-43be-9c48-fc87129edd84}, !- Handle
  {7cd13abd-73b4-462d-9707-8e22b66df42f}, !- Zone or ZoneList Name
  SupplyAirTemperature,                   !- Zone Cooling Design Supply Air Temperature Input Method
  14,                                     !- Zone Cooling Design Supply Air Temperature {C}
  11.11,                                  !- Zone Cooling Design Supply Air Temperature Difference {deltaC}
  SupplyAirTemperature,                   !- Zone Heating Design Supply Air Temperature Input Method
  40,                                     !- Zone Heating Design Supply Air Temperature {C}
  11.11,                                  !- Zone Heating Design Supply Air Temperature Difference {deltaC}
  0.0085,                                 !- Zone Cooling Design Supply Air Humidity Ratio {kg-H2O/kg-air}
  0.008,                                  !- Zone Heating Design Supply Air Humidity Ratio {kg-H2O/kg-air}
  ,                                       !- Zone Heating Sizing Factor
  ,                                       !- Zone Cooling Sizing Factor
  DesignDay,                              !- Cooling Design Air Flow Method
  ,                                       !- Cooling Design Air Flow Rate {m3/s}
  ,                                       !- Cooling Minimum Air Flow per Zone Floor Area {m3/s-m2}
  ,                                       !- Cooling Minimum Air Flow {m3/s}
  ,                                       !- Cooling Minimum Air Flow Fraction
  DesignDay,                              !- Heating Design Air Flow Method
  ,                                       !- Heating Design Air Flow Rate {m3/s}
  ,                                       !- Heating Maximum Air Flow per Zone Floor Area {m3/s-m2}
  ,                                       !- Heating Maximum Air Flow {m3/s}
  ,                                       !- Heating Maximum Air Flow Fraction
  No,                                     !- Account for Dedicated Outdoor Air System
  NeutralSupplyAir,                       !- Dedicated Outdoor Air System Control Strategy
  autosize,                               !- Dedicated Outdoor Air Low Setpoint Temperature for Design {C}
  autosize,                               !- Dedicated Outdoor Air High Setpoint Temperature for Design {C}
  Sensible Load Only No Latent Load,      !- Zone Load Sizing Method
  HumidityRatioDifference,                !- Zone Latent Cooling Design Supply Air Humidity Ratio Input Method
  ,                                       !- Zone Dehumidification Design Supply Air Humidity Ratio {kgWater/kgDryAir}
  0.005,                                  !- Zone Cooling Design Supply Air Humidity Ratio Difference {kgWater/kgDryAir}
  HumidityRatioDifference,                !- Zone Latent Heating Design Supply Air Humidity Ratio Input Method
  ,                                       !- Zone Humidification Design Supply Air Humidity Ratio {kgWater/kgDryAir}
  0.005,                                  !- Zone Humidification Design Supply Air Humidity Ratio Difference {kgWater/kgDryAir}
  ,                                       !- Zone Humidistat Dehumidification Set Point Schedule Name
  ,                                       !- Zone Humidistat Humidification Set Point Schedule Name
  ,                                       !- Design Zone Air Distribution Effectiveness in Cooling Mode
  ,                                       !- Design Zone Air Distribution Effectiveness in Heating Mode
  ,                                       !- Design Zone Secondary Recirculation Fraction {dimensionless}
  ,                                       !- Design Minimum Zone Ventilation Efficiency {dimensionless}
  Coincident;                             !- Sizing Option

OS:ZoneHVAC:EquipmentList,
  {747eb326-49e6-4b86-a64a-92c16fa4cba3}, !- Handle
  Zone HVAC Equipment List 2,             !- Name
  {7cd13abd-73b4-462d-9707-8e22b66df42f}; !- Thermal Zone

OS:AdditionalProperties,
  {2203faee-2044-4dda-a1c5-4fcd34894849}, !- Handle
  {7cd13abd-73b4-462d-9707-8e22b66df42f}, !- Object Name
  ObjectType,                             !- Feature Name 1
  String,                                 !- Feature Data Type 1
  attic - vented;                         !- Feature Value 1

OS:Space,
  {d671312b-3e94-404f-86c2-d6fee9badb80}, !- Handle
  attic - vented 1,                       !- Name
  ,                                       !- Space Type Name
  ,                                       !- Default Construction Set Name
  ,                                       !- Default Schedule Set Name
  ,                                       !- Direction of Relative North {deg}
  ,                                       !- X Origin {m}
  ,                                       !- Y Origin {m}
  ,                                       !- Z Origin {m}
  ,                                       !- Building Story Name
  {7cd13abd-73b4-462d-9707-8e22b66df42f}, !- Thermal Zone Name
  ,                                       !- Part of Total Floor Area
  ,                                       !- Design Specification Outdoor Air Object Name
  ,                                       !- Building Unit Name
  356.389957095237;                       !- Volume {m3}

OS:Material,
  {1128fabb-668a-42c4-9cd5-fdc0422caa0c}, !- Handle
  asphalt or fiberglass shingles,         !- Name
  Rough,                                  !- Roughness
  0.00635,                                !- Thickness {m}
  0.162714,                               !- Conductivity {W/m-K}
  1121.4,                                 !- Density {kg/m3}
  1465.45,                                !- Specific Heat {J/kg-K}
  0.9,                                    !- Thermal Absorptance
  0.85,                                   !- Solar Absorptance