
OS:Version,
  {5a1e5c25-5f60-428b-adf0-55bd56b96850}, !- Handle
  3.10.0;                                 !- Version Identifier

OS:SimulationControl,
  {4a29fe3b-e155-4402-b7ae-68a389af2430}, !- Handle
  ,                                       !- Do Zone Sizing Calculation
  ,                                       !- Do System Sizing Calculation
  ,                                       !- Do Plant Sizing Calculation
  No;                                     !- Run Simulation for Sizing Periods

OS:Timestep,
  {b83685bc-1d1e-424f-b4e0-d63d8ef04dcb}, !- Handle
  1;                                      !- Number of Timesteps per Hour

OS:ShadowCalculation,
  {5a0347b9-f805-47b1-b184-558f1944a364}, !- Handle
  PolygonClipping,                        !- Shading Calculation Method
  ,                                       !- Shading Calculation Update Frequency Method
  20,                                     !- Shading Calculation Update Frequency
  200,                                    !- Maximum Figures in Shadow Overlap Calculations
  ,                                       !- Polygon Clipping Algorithm
  512,                                    !- Pixel Counting Resolution
  ,                                       !- Sky Diffuse Modeling Algorithm
  No,                                     !- Output External Shading Calculation Results
  No,                                     !- Disable Self-Shading Within Shading Zone Groups
  No;                                     !- Disable Self-Shading From Shading Zone Groups to Other Zones

OS:SurfaceConvectionAlgorithm:Outside,
  {c9f016b0-c2c0-413e-a85a-a78d894bd61c}, !- Handle
  DOE-2;                                  !- Algorithm

OS:SurfaceConvectionAlgorithm:Inside,
  {4cc4f2b2-4e76-4e9c-86c6-c68af2aa30c4}, !- Handle
  TARP;                                   !- Algorithm

OS:ZoneCapacitanceMultiplier:ResearchSpecial,
  {b4ba3696-fbbe-453d-b82c-bccb536122f7}, !- Handle
  7,                                      !- Temperature Capacity Multiplier
  15,                                     !- Humidity Capacity Multiplier
  ;                                       !- Carbon Dioxide Capacity Multiplier

OS:ConvergenceLimits,
  {3ded005d-c570-4c59-9f25-27742bb687da}, !- Handle
  0;                                      !- Minimum System Timestep {minutes}

OS:RunPeriod,
  {05f19552-a173-4d7d-87ed-209f8ba3d15b}, !- Handle
  Run Period 1,                           !- Name
  1,                                      !- Begin Month
  1,                                      !- Begin Day of Month
  12,                                     !- End Month
  31,                                     !- End Day of Month
  ,                                       !- Use Weather File Holidays and Special Days
  ,                                       !- Use Weather File Daylight Saving Period
  ,                                       !- Apply Weekend Holiday Rule
  ,                                       !- Use Weather File Rain Indicators
  ,                                       !- Use Weather File Snow Indicators
  ;                                       !- Number of Times Runperiod to be Repeated

OS:PerformancePrecisionTradeoffs,
  {043f97fc-71bd-4060-a6d4-80dd278e3584}, !- Handle
  ,                                       !- Use Coil Direct Solutions
  CarrollMRT;                             !- Zone Radiant Exchange Algorithm

OS:WeatherFile,
  {7b8b9463-e664-4ecf-bdf0-0757fdf03652}, !- Handle
  Buffalo Niagara Intl Ap,                !- City
  NY,                                     !- State Province Region
  USA,                                    !- Country
  TMY3,                                   !- Data Source
  725280,                                 !- WMO Number
  42.93,                                  !- Latitude {deg}
  -78.73,                                 !- Longitude {deg}
  -5,                                     !- Time Zone {hr}
  215,                                    !- Elevation {m}
  /Users/nmoore/github/urbanopt-example-geojson-project/example_project/weather/USA_NY_Buffalo-Greater.Buffalo.Intl.AP.725280_TMY3.epw, !- Url
  6B50E0FF,                               !- Checksum
  ,                                       !- Start Date Actual Year
  Sunday;                                 !- Start Day of Week

OS:YearDescription,
  {33b52c93-dbc1-4df6-aba7-8713fed92776}, !- Handle
  2007,                                   !- Calendar Year
  ,                                       !- Day of Week for Start Day
  ;                                       !- Is Leap Year

OS:Site,
  {aa81e060-f13e-4437-bf24-1fbc465a07e8}, !- Handle
  Buffalo Niagara Intl Ap_NY,             !- Name
  42.93,                                  !- Latitude {deg}
  -78.73,                                 !- Longitude {deg}
  -5,                                     !- Time Zone {hr}
  215,                                    !- Elevation {m}
  Suburbs,                                !- Terrain
  Yes;                                    !- Keep Site Location Information

OS:RunPeriodControl:DaylightSavingTime,
  {034a424d-90a7-4c1d-a25b-589a5df7f313}, !- Handle
  Mar 12,                                 !- Start Date
  Nov 5;                                  !- End Date

OS:Site:GroundTemperature:Shallow,
  {8590c650-0194-4fc4-9387-3cb2b25378de}, !- Handle
  4.30207395723828,                       !- January Surface Ground Temperature {C}
  2.29327249652502,                       !- February Surface Ground Temperature {C}
  2.13240047156047,                       !- March Surface Ground Temperature {C}
  3.08567940719286,                       !- April Surface Ground Temperature {C}
  6.91256312497526,                       !- May Surface Ground Temperature {C}
  10.7216195949507,                       !- June Surface Ground Temperature {C}
  14.0238679822574,                       !- July Surface Ground Temperature {C}
  16.1157611184724,                       !- August Surface Ground Temperature {C}
  16.2934789303462,                       !- September Surface Ground Temperature {C}
  14.5920754632847,                       !- October Surface Ground Temperature {C}
  11.374036348653,                        !- November Surface Ground Temperature {C}
  7.68182621661674;                       !- December Surface Ground Temperature {C}

OS:ThermalZone,
  {21042530-b51b-4979-bc52-e8ec4c27779c}, !- Handle
  conditioned space,                      !- Name
  1,                                      !- Multiplier
  ,                                       !- Ceiling Height {m}
  951.587629724161,                       !- Volume {m3}
  ,                                       !- Floor Area {m2}
  ,                                       !- Zone Inside Convection Algorithm
  ,                                       !- Zone Outside Convection Algorithm
  ,                                       !- Zone Conditioning Equipment List Name
  {3b3db666-e2bc-4b2b-ac66-64c3353d673e}, !- Zone Air Inlet Port List
  {f7417c08-7758-4abf-b11f-7ed40fee60b0}, !- Zone Air Exhaust Port List
  {44504dce-f5c7-4d8c-a0b4-bace6aea7d3b}, !- Zone Air Node Name
  {876cf0f3-f635-4cab-85d5-32753eebc517}, !- Zone Return Air Port List
  ,                                       !- Primary Daylighting Control Name
  ,                                       !- Fraction of Zone Controlled by Primary Daylighting Control
  ,                                       !- Secondary Daylighting Control Name
  ,                                       !- Fraction of Zone Controlled by Secondary Daylighting Control
  ,                                       !- Illuminance Map Name
  ,                                       !- Group Rendering Name
  {7c029f43-9ff8-416a-ad2c-0e8b9a7aac7e}, !- Thermostat Name
  No;                                     !- Use Ideal Air Loads

OS:Node,
  {983c14d9-ee38-4bc7-be67-fa6c6d9bd996}, !- Handle
  Node 1,                                 !- Name
  {44504dce-f5c7-4d8c-a0b4-bace6aea7d3b}, !- Inlet Port
  ;                                       !- Outlet Port

OS:Connection,
  {44504dce-f5c7-4d8c-a0b4-bace6aea7d3b}, !- Handle
  {21042530-b51b-4979-bc52-e8ec4c27779c}, !- Source Object
  11,                                     !- Outlet Port
  {983c14d9-ee38-4bc7-be67-fa6c6d9bd996}, !- Target Object
  2;                                      !- Inlet Port

OS:PortList,
  {3b3db666-e2bc-4b2b-ac66-64c3353d673e}, !- Handle
  {21042530-b51b-4979-bc52-e8ec4c27779c}, !- HVAC Component
  {668d66b0-96b0-4480-9d64-b419b5672991}; !- Port 1

OS:PortList,
  {f7417c08-7758-4abf-b11f-7ed40fee60b0}, !- Handle
  {21042530-b51b-4979-bc52-e8ec4c27779c}; !- HVAC Component

OS:PortList,
  {876cf0f3-f635-4cab-85d5-32753eebc517}, !- Handle
  {21042530-b51b-4979-bc52-e8ec4c27779c}, !- HVAC Component
  {055845e7-73e5-4e64-8633-409f72ee4134}; !- Port 1

OS:Sizing:Zone,
  {deeac890-d3dd-4c65-adec-a6e4d529af06}, !- Handle
  {21042530-b51b-4979-bc52-e8ec4c27779c}, !- Zone or ZoneList Name
  SupplyAirTemperature,                   !- Zone Cooling Design Supply Air Temperature Input Method
  14,                                     !- Zone Cooling Design Supply Air Temperature {C}
  11.11,                                  !- Zone Cooling Design Supply Air Temperature Difference {deltaC}
  SupplyAirTemperature,                   !- Zone Heating Design Supply Air Temperature Input Method
  40,                                     !- Zone Heating Design Supply Air Temperature {C}
  11.11,                                  !- Zone Heating Design Supply Air Temperature Difference {deltaC}
  0.0085,                                 !- Zone Cooling Design Supply Air Humidity Ratio {kg-H2O/kg-air}
  0.008,                                  !- Zone Heating Design Supply Air Humidity Ratio {kg-H2O/kg-air}
  ,                                       !- Zone Heating Sizing Factor
  ,                                       !- Zone Cooling Sizing Factor
  DesignDay,                              !- Cooling Design Air Flow Method
  ,                                       !- Cooling Design Air Flow Rate {m3/s}
  ,                                       !- Cooling Minimum Air Flow per Zone Floor Area {m3/s-m2}
  ,                                       !- Cooling Minimum Air Flow {m3/s}
  ,                                       !- Cooling Minimum Air Flow Fraction
  DesignDay,                              !- Heating Design Air Flow Method
  ,                                       !- Heating Design Air Flow Rate {m3/s}
  ,                                       !- Heating Maximum Air Flow per Zone Floor Area {m3/s-m2}
  ,                                       !- Heating Maximum Air Flow {m3/s}
  ,                                       !- Heating Maximum Air Flow Fraction
  No,                                     !- Account for Dedicated Outdoor Air System
  NeutralSupplyAir,                       !- Dedicated Outdoor Air System Control Strategy
  autosize,                               !- Dedicated Outdoor Air Low Setpoint Temperature for Design {C}
  autosize,                               !- Dedicated Outdoor Air High Setpoint Temperature for Design {C}
  Sensible Load Only No Latent Load,      !- Zone Load Sizing Method
  HumidityRatioDifference,                !- Zone Latent Cooling Design Supply Air Humidity Ratio Input Method
  ,                                       !- Zone Dehumidification Design Supply Air Humidity Ratio {kgWater/kgDryAir}
  0.005,                                  !- Zone Cooling Design Supply Air Humidity Ratio Difference {kgWater/kgDryAir}
  HumidityRatioDifference,                !- Zone Latent Heating Design Supply Air Humidity Ratio Input Method
  ,                                       !- Zone Humidification Design Supply Air Humidity Ratio {kgWater/kgDryAir}
  0.005,                                  !- Zone Humidification Design Supply Air Humidity Ratio Difference {kgWater/kgDryAir}
  ,                                       !- Zone Humidistat Dehumidification Set Point Schedule Name
  ,                                       !- Zone Humidistat Humidification Set Point Schedule Name
  ,                                       !- Design Zone Air Distribution Effectiveness in Cooling Mode
  ,                                       !- Design Zone Air Distribution Effectiveness in Heating Mode
  ,                                       !- Design Zone Secondary Recirculation Fraction {dimensionless}
  ,                                       !- Design Minimum Zone Ventilation Efficiency {dimensionless}
  Coincident;                             !- Sizing Option

OS:ZoneHVAC:EquipmentList,
  {6c3beaca-b506-4a5d-8d2a-3cc8f3397a6c}, !- Handle
  Zone HVAC Equipment List 1,             !- Name
  {21042530-b51b-4979-bc52-e8ec4c27779c}, !- Thermal Zone
  ,                                       !- Load Distribution Scheme
  {0e716926-7277-4f33-bccc-00444e604597}, !- Zone Equipment 1
  1,                                      !- Zone Equipment Cooling Sequence 1
  1,                                      !- Zone Equipment Heating or No-Load Sequence 1
  {4407ff59-18ba-4e95-b91d-08f6b9ea8804}, !- Zone Equipment Sequential Cooling Fraction Schedule Name 1
  {6376e0d8-2b31-459f-ba8d-48c00fa03254}; !- Zone Equipment Sequential Heating Fraction Schedule Name 1

OS:AdditionalProperties,
  {81983536-da53-44b1-be0b-9ea0daed1e1e}, !- Handle
  {21042530-b51b-4979-bc52-e8ec4c27779c}, !- Object Name
  ObjectType,                             !- Feature Name 1
  String,                                 !- Feature Data Type 1
  conditioned space;                      !- Feature Value 1

OS:Space,
  {07d42bd5-dd4b-403d-8d74-3907189f6de8}, !- Handle
  conditioned space 1,                    !- Name
  ,                                       !- Space Type Name
  ,                                       !- Default Construction Set Name
  ,                                       !- Default Schedule Set Name
  ,                                       !- Direction of Relative North {deg}
  ,                                       !- X Origin {m}
  ,                                       !- Y Origin {m}
  ,                                       !- Z Origin {m}
  ,                                       !- Building Story Name
  {21042530-b51b-4979-bc52-e8ec4c27779c}, !- Thermal Zone Name
  ,                                       !- Part of Total Floor Area
  ,                                       !- Design Specification Outdoor Air Object Name
  ,                                       !- Building Unit Name
  951.587629724161;                       !- Volume {m3}

OS:Schedule:Ruleset,
  {5b8301d8-74e1-4602-abab-7bbc6d81909f}, !- Handle
  heating setpoint,                       !- Name
  {d946aa1a-bda7-45ad-82fe-ec7a519dfe5e}, !- Schedule Type Limits Name
  {297b5312-1560-4597-a8c4-2a879e3a2ebf}; !- Default Day Schedule Name

OS:Schedule:Day,
  {297b5312-1560-4597-a8c4-2a879e3a2ebf}, !- Handle
  heating setpoint default day,           !- Name
  {d946aa1a-bda7-45ad-82fe-ec7a519dfe5e}, !- Schedule Type Limits Name
  ,                                       !- Interpolate to Timestep
  24,                                     !- Hour 1
  0,                                      !- Minute 1
  0;                                      !- Value Until Time 1

OS:Schedule:Rule,
  {5c10db4b-4b9a-4864-81c3-a183e3e8c40b}, !- Handle
  heating setpoint allday rule,           !- Name
  {5b8301d8-74e1-4602-abab-7bbc6d81909f}, !- Schedule Ruleset Name
  0,                                      !- Rule Order
  {38495aae-5a97-4884-ae30-5c1dde6eb728}, !- Day Schedule Name
  Yes,                                    !- Apply Sunday
  Yes,                                    !- Apply Monday
  Yes,                                    !- Apply Tuesday
  Yes,                                    !- Apply Wednesday
  Yes,                                    !- Apply Thursday
  Yes,                                    !- Apply Friday
  Yes,                                    !- Apply Saturday
  DateRange,                              !- Date Specification Type
  1,                                      !- Start Month
  1,                                      !- Start Day
  12,                                     !- End Month
  31;                                     !- End Day

OS:Schedule:Day,
  {38495aae-5a97-4884-ae30-5c1dde6eb728}, !- Handle
  heating setpoint day,                   !- Name
  {d946aa1a-bda7-45ad-82fe-ec7a519dfe5e}, !- Schedule Type Limits Name
  ,                                       !- Interpolate to Timestep
  24,                                     !- Hour 1
  0,                                      !- Minute 1
  20;                                     !- Value Until Time 1

OS:Schedule:Ruleset,
  {73386e81-fbb7-49f5-938a-6d94a31a3b4d}, !- Handle
  cooling setpoint,                       !- Name
  {d946aa1a-bda7-45ad-82fe-ec7a519dfe5e}, !- Schedule Type Limits Name
  {252cbf87-7229-4abf-835e-c737b2fbe2dd}; !- Default Day Schedule Name

OS:Schedule:Day,
  {252cbf87-7229-4abf-835e-c737b2fbe2dd}, !- Handle
  cooling setpoint default day,           !- Name
  {d946aa1a-bda7-45ad-82fe-ec7a519dfe5e}, !- Schedule Type Limits Name
  ,                                       !- Interpolate to Timestep
  24,                                     !- Hour 1
  0,                                      !- Minute 1
  0;                                      !- Value Until Time 1

OS:Schedule:Rule,
  {73630b3a-ffdb-4616-b860-e6a7926a59d9}, !- Handle
  cooling setpoint allday rule,           !- Name
  {73386e81-fbb7-49f5-938a-6d94a31a3b4d}, !- Schedule Ruleset Name
  0,                                      !- Rule Order
  {0a89741c-3d8f-4599-af30-b671f7647b26}, !- Day Schedule Name
  Yes,                                    !- Apply Sunday
  Yes,                                    !- Apply Monday
  Yes,                                    !- Apply Tuesday
  Yes,                                    !- Apply Wednesday
  Yes,                                    !- Apply Thursday
  Yes,                                    !- Apply Friday
  Yes,                                    !- Apply Saturday
  DateRange,                              !- Date Specification Type
  1,                                      !- Start Month
  1,                                      !- Start Day
  12,                                     !- End Month
  31;                                     !- End Day

OS:Schedule:Day,
  {0a89741c-3d8f-4599-af30-b671f7647b26}, !- Handle
  cooling setpoint day,                   !- Name
  {d946aa1a-bda7-45ad-82fe-ec7a519dfe5e}, !- Schedule Type Limits Name
  ,                                       !- Interpolate to Timestep
  24,                                     !- Hour 1
  0,                                      !- Minute 1
  25.5555555555556;                       !- Value Until Time 1

OS:ThermostatSetpoint:DualSetpoint,
  {7c029f43-9ff8-416a-ad2c-0e8b9a7aac7e}, !- Handle
  conditioned space temperature setpoint, !- Name
  {5b8301d8-74e1-4602-abab-7bbc6d81909f}, !- Heating Setpoint Temperature Schedule Name
  {73386e81-fbb7-49f5-938a-6d94a31a3b4d}, !- Cooling Setpoint Temperature Schedule Name
  0;                                      !- Temperature Difference Between Cutout And Setpoint {deltaC}

OS:ScheduleTypeLimits,
  {d946aa1a-bda7-45ad-82fe-ec7a519dfe5e}, !- Handle
  Temperature,                            !- Name
  ,                                       !- Lower Limit Value
  ,                                       !- Upper Limit Value
  Continuous,                             !- Numeric Type
  Temperature;                            !- Unit Type

OS:Surface,
  {7ef402e7-2e6e-4187-a479-37d7167697e5}, !- Handle
  Roof1,                                  !- Name
  RoofCeiling,                            !- Surface Type
  {46abaa7c-0d93-4e88-9d91-a3d4a9581f96}, !- Construction Name
  {3d666a6f-d003-42fe-ad57-d73f76026040}, !- Space Name
  Outdoors,                               !- Outside Boundary Condition
  ,                                       !- Outside Boundary Condition Object
  SunExposed,                             !- Sun Exposure
  WindExposed,                            !- Wind Exposure
  ,                                       !- View Factor to Ground
  ,                                       !- Number of Vertices
  -26.9347048849634, 58.0557891618865, 2.4384, !- X,Y,Z Vertex 1 {m}
  -26.9347048849634, 46.7895631136661, 8.0715130241102, !- X,Y,Z Vertex 2 {m}
  -14.3386812381136, 46.7895631136661, 8.0715130241102, !- X,Y,Z Vertex 3 {m}
  -14.3386812381136, 58.0557891618865, 2.4384; !- X,Y,Z Vertex 4 {m}

OS:AdditionalProperties,
  {ac657495-cf79-4e64-9b9f-63cac9a3b6bb}, !- Handle
  {7ef402e7-2e6e-4187-a479-37d7167697e5}, !- Object Name
  Length,                                 !- Feature Name 1
  Double,                                 !- Feature Data Type 1
  41.325536899113608,                     !- Feature Value 1
  Width,                                  !- Feature Name 2
  Double,                                 !- Feature Data Type 2
  41.325536899113601,                     !- Feature Value 2
  Azimuth,                                !- Feature Name 3
  Integer,                                !- Feature Data Type 3
  0,                                      !- Feature Value 3
  Tilt,                                   !- Feature Name 4
  Double,                                 !- Feature Data Type 4
  0.5,                                    !- Feature Value 4
  SurfaceType,                            !- Feature Name 5
  String,                                 !- Feature Data Type 5
  Roof;                                   !- Feature Value 5

OS:ThermalZone,
  {00d08d8c-9459-474f-aab7-20f29a784006}, !- Handle
  attic - vented,                         !- Name
  1,                                      !- Multiplier
  ,                                       !- Ceiling Height {m}
  356.390921899745,                       !- Volume {m3}
  ,                                       !- Floor Area {m2}
  ,                                       !- Zone Inside Convection Algorithm
  ,                                       !- Zone Outside Convection Algorithm
  ,                                       !- Zone Conditioning Equipment List Name
  {be3d47da-1b51-4b2c-b521-d0cb9a329cda}, !- Zone Air Inlet Port List
  {48d8029c-1a8c-4643-99e3-b37be2ac46cb}, !- Zone Air Exhaust Port List
  {9455222c-8cb2-4c86-897e-bd4cfdb65743}, !- Zone Air Node Name
  {5b001d48-b3f3-4a30-83a3-e46ced544f22}, !- Zone Return Air Port List
  ,                                       !- Primary Daylighting Control Name
  ,                                       !- Fraction of Zone Controlled by Primary Daylighting Control
  ,                                       !- Secondary Daylighting Control Name
  ,                                       !- Fraction of Zone Controlled by Secondary Daylighting Control
  ,                                       !- Illuminance Map Name
  ,                                       !- Group Rendering Name
  ,                                       !- Thermostat Name
  No;                                     !- Use Ideal Air Loads

OS:Node,
  {baf089d5-f119-40f7-b702-843b7bb080f2}, !- Handle
  Node 2,                                 !- Name
  {9455222c-8cb2-4c86-897e-bd4cfdb65743}, !- Inlet Port
  ;                                       !- Outlet Port

OS:Connection,
  {9455222c-8cb2-4c86-897e-bd4cfdb65743}, !- Handle
  {00d08d8c-9459-474f-aab7-20f29a784006}, !- Source Object
  11,                                     !- Outlet Port
  {baf089d5-f119-40f7-b702-843b7bb080f2}, !- Target Object
  2;                                      !- Inlet Port

OS:PortList,
  {be3d47da-1b51-4b2c-b521-d0cb9a329cda}, !- Handle
  {00d08d8c-9459-474f-aab7-20f29a784006}; !- HVAC Component

OS:PortList,
  {48d8029c-1a8c-4643-99e3-b37be2ac46cb}, !- Handle
  {00d08d8c-9459-474f-aab7-20f29a784006}; !- HVAC Component

OS:PortList,
  {5b001d48-b3f3-4a30-83a3-e46ced544f22}, !- Handle
  {00d08d8c-9459-474f-aab7-20f29a784006}; !- HVAC Component

OS:Sizing:Zone,
  {b54ca81d-6a3c-45e2-b602-e3968648f609}, !- Handle
  {00d08d8c-9459-474f-aab7-20f29a784006}, !- Zone or ZoneList Name
  SupplyAirTemperature,                   !- Zone Cooling Design Supply Air Temperature Input Method
  14,                                     !- Zone Cooling Design Supply Air Temperature {C}
  11.11,                                  !- Zone Cooling Design Supply Air Temperature Difference {deltaC}
  SupplyAirTemperature,                   !- Zone Heating Design Supply Air Temperature Input Method
  40,                                     !- Zone Heating Design Supply Air Temperature {C}
  11.11,                                  !- Zone Heating Design Supply Air Temperature Difference {deltaC}
  0.0085,                                 !- Zone Cooling Design Supply Air Humidity Ratio {kg-H2O/kg-air}
  0.008,                                  !- Zone Heating Design Supply Air Humidity Ratio {kg-H2O/kg-air}
  ,                                       !- Zone Heating Sizing Factor
  ,                                       !- Zone Cooling Sizing Factor
  DesignDay,                              !- Cooling Design Air Flow Method
  ,                                       !- Cooling Design Air Flow Rate {m3/s}
  ,                                       !- Cooling Minimum Air Flow per Zone Floor Area {m3/s-m2}
  ,                                       !- Cooling Minimum Air Flow {m3/s}
  ,                                       !- Cooling Minimum Air Flow Fraction
  DesignDay,                              !- Heating Design Air Flow Method
  ,                                       !- Heating Design Air Flow Rate {m3/s}
  ,                                       !- Heating Maximum Air Flow per Zone Floor Area {m3/s-m2}
  ,                                       !- Heating Maximum Air Flow {m3/s}
  ,                                       !- Heating Maximum Air Flow Fraction
  No,                                     !- Account for Dedicated Outdoor Air System
  NeutralSupplyAir,                       !- Dedicated Outdoor Air System Control Strategy
  autosize,                               !- Dedicated Outdoor Air Low Setpoint Temperature for Design {C}
  autosize,                               !- Dedicated Outdoor Air High Setpoint Temperature for Design {C}
  Sensible Load Only No Latent Load,      !- Zone Load Sizing Method
  HumidityRatioDifference,                !- Zone Latent Cooling Design Supply Air Humidity Ratio Input Method
  ,                                       !- Zone Dehumidification Design Supply Air Humidity Ratio {kgWater/kgDryAir}
  0.005,                                  !- Zone Cooling Design Supply Air Humidity Ratio Difference {kgWater/kgDryAir}
  HumidityRatioDifference,                !- Zone Latent Heating Design Supply Air Humidity Ratio Input Method
  ,                                       !- Zone Humidification Design Supply Air Humidity Ratio {kgWater/kgDryAir}
  0.005,                                  !- Zone Humidification Design Supply Air Humidity Ratio Difference {kgWater/kgDryAir}
  ,                                       !- Zone Humidistat Dehumidification Set Point Schedule Name
  ,                                       !- Zone Humidistat Humidification Set Point Schedule Name
  ,                                       !- Design Zone Air Distribution Effectiveness in Cooling Mode
  ,                                       !- Design Zone Air Distribution Effectiveness in Heating Mode
  ,                                       !- Design Zone Secondary Recirculation Fraction {dimensionless}
  ,                                       !- Design Minimum Zone Ventilation Efficiency {dimensionless}
  Coincident;                             !- Sizing Option

OS:ZoneHVAC:EquipmentList,
  {20f3efa8-bf16-4d0e-8e78-5a7cd760b47b}, !- Handle
  Zone HVAC Equipment List 2,             !- Name
  {00d08d8c-9459-474f-aab7-20f29a784006}; !- Thermal Zone

OS:AdditionalProperties,
  {e48c268d-2c94-4550-b353-90b8c1cdcf9d}, !- Handle
  {00d08d8c-9459-474f-aab7-20f29a784006}, !- Object Name
  ObjectType,                             !- Feature Name 1
  String,                                 !- Feature Data Type 1
  attic - vented;                         !- Feature Value 1

OS:Space,
  {3d666a6f-d003-42fe-ad57-d73f76026040}, !- Handle
  attic - vented 1,                       !- Name
  ,                                       !- Space Type Name
  ,                                       !- Default Construction Set Name
  ,                                       !- Default Schedule Set Name
  ,                                       !- Direction of Relative North {deg}
  ,                                       !- X Origin {m}
  ,                                       !- Y Origin {m}
  ,                                       !- Z Origin {m}
  ,                                       !- Building Story Name
  {00d08d8c-9459-474f-aab7-20f29a784006}, !- Thermal Zone Name
  ,                                       !- Part of Total Floor Area
  ,                                       !- Design Specification Outdoor Air Object Name
  ,                                       !- Building Unit Name
  356.390921899745;                       !- Volume {m3}

OS:Material,
  {913b5c3f-1015-44d3-8959-48cb51dd98e6}, !- Handle
  asphalt or fiberglass shingles,         !- Name
  Rough,                                  !- Roughness
  0.00635,                                !- Thickness {m}
  0.162714,                               !- Conductivity {W/m-K}
  1121.4,                                 !- Density {kg/m3}
  1465.45,                                !- Specific Heat {J/kg-K}
  0.9,                                    !- Thermal Absorptance
  0.85,                                   !- Solar Absorptance