
OS:Version,
  {e56d9409-3f46-450c-8a8a-02e2228fa9ed}, !- Handle
  3.9.0;                                  !- Version Identifier

OS:SimulationControl,
  {b820c2bd-698a-467d-bc8b-0e57c9270ac5}, !- Handle
  ,                                       !- Do Zone Sizing Calculation
  ,                                       !- Do System Sizing Calculation
  ,                                       !- Do Plant Sizing Calculation
  No;                                     !- Run Simulation for Sizing Periods

OS:Timestep,
  {7f66c71f-67a2-4571-85e2-3bca30c37174}, !- Handle
  1;                                      !- Number of Timesteps per Hour

OS:ShadowCalculation,
  {aebcf449-48f7-49f8-9893-639c193fcb87}, !- Handle
  PolygonClipping,                        !- Shading Calculation Method
  ,                                       !- Shading Calculation Update Frequency Method
  20,                                     !- Shading Calculation Update Frequency
  200,                                    !- Maximum Figures in Shadow Overlap Calculations
  ,                                       !- Polygon Clipping Algorithm
  512,                                    !- Pixel Counting Resolution
  ,                                       !- Sky Diffuse Modeling Algorithm
  No,                                     !- Output External Shading Calculation Results
  No,                                     !- Disable Self-Shading Within Shading Zone Groups
  No;                                     !- Disable Self-Shading From Shading Zone Groups to Other Zones

OS:SurfaceConvectionAlgorithm:Outside,
  {8df1786b-2c43-4d8c-9996-c4c9098f4071}, !- Handle
  DOE-2;                                  !- Algorithm

OS:SurfaceConvectionAlgorithm:Inside,
  {d5c35690-9eb6-48b0-8646-04fa49ec0820}, !- Handle
  TARP;                                   !- Algorithm

OS:ZoneCapacitanceMultiplier:ResearchSpecial,
  {306b787a-085d-4e88-b5ea-ad267ef02800}, !- Handle
  7,                                      !- Temperature Capacity Multiplier
  15,                                     !- Humidity Capacity Multiplier
  ;                                       !- Carbon Dioxide Capacity Multiplier

OS:ConvergenceLimits,
  {2fbc5028-9b7e-4d33-84a1-bfbae013b9a4}, !- Handle
  0;                                      !- Minimum System Timestep {minutes}

OS:RunPeriod,
  {0fac29d8-4356-4f09-97c8-f74b443fbffb}, !- Handle
  Run Period 1,                           !- Name
  1,                                      !- Begin Month
  1,                                      !- Begin Day of Month
  12,                                     !- End Month
  31,                                     !- End Day of Month
  ,                                       !- Use Weather File Holidays and Special Days
  ,                                       !- Use Weather File Daylight Saving Period
  ,                                       !- Apply Weekend Holiday Rule
  ,                                       !- Use Weather File Rain Indicators
  ,                                       !- Use Weather File Snow Indicators
  ;                                       !- Number of Times Runperiod to be Repeated

OS:PerformancePrecisionTradeoffs,
  {c8d045a4-9b6b-4b74-b49a-78efcce88d1e}, !- Handle
  ,                                       !- Use Coil Direct Solutions
  CarrollMRT;                             !- Zone Radiant Exchange Algorithm

OS:WeatherFile,
  {e326a080-668b-4f00-ade4-56c499f78b29}, !- Handle
  Buffalo Niagara Intl Ap,                !- City
  NY,                                     !- State Province Region
  USA,                                    !- Country
  TMY3,                                   !- Data Source
  725280,                                 !- WMO Number
  42.93,                                  !- Latitude {deg}
  -78.73,                                 !- Longitude {deg}
  -5,                                     !- Time Zone {hr}
  215,                                    !- Elevation {m}
  /Users/nmoore/github/urbanopt-example-geojson-project/example_project/weather/USA_NY_Buffalo-Greater.Buffalo.Intl.AP.725280_TMY3.epw, !- Url
  6B50E0FF,                               !- Checksum
  ,                                       !- Start Date Actual Year
  Sunday;                                 !- Start Day of Week

OS:YearDescription,
  {ea240b4d-7e4e-469d-97c3-9209722854f0}, !- Handle
  2007,                                   !- Calendar Year
  ,                                       !- Day of Week for Start Day
  ;                                       !- Is Leap Year

OS:Site,
  {4f196b45-2332-4878-abd7-c76a5ac9ab85}, !- Handle
  Buffalo Niagara Intl Ap_NY,             !- Name
  42.93,                                  !- Latitude {deg}
  -78.73,                                 !- Longitude {deg}
  -5,                                     !- Time Zone {hr}
  215,                                    !- Elevation {m}
  Suburbs,                                !- Terrain
  Yes;                                    !- Keep Site Location Information

OS:RunPeriodControl:DaylightSavingTime,
  {b015970c-faa2-4ec1-beea-7fbd4d38f1f0}, !- Handle
  Mar 12,                                 !- Start Date
  Nov 5;                                  !- End Date

OS:Site:GroundTemperature:Shallow,
  {1801def6-a630-4540-9260-f74a4e17fd6e}, !- Handle
  4.30207395723828,                       !- January Surface Ground Temperature {C}
  2.29327249652502,                       !- February Surface Ground Temperature {C}
  2.13240047156047,                       !- March Surface Ground Temperature {C}
  3.08567940719286,                       !- April Surface Ground Temperature {C}
  6.91256312497526,                       !- May Surface Ground Temperature {C}
  10.7216195949507,                       !- June Surface Ground Temperature {C}
  14.0238679822574,                       !- July Surface Ground Temperature {C}
  16.1157611184724,                       !- August Surface Ground Temperature {C}
  16.2934789303462,                       !- September Surface Ground Temperature {C}
  14.5920754632847,                       !- October Surface Ground Temperature {C}
  11.374036348653,                        !- November Surface Ground Temperature {C}
  7.68182621661674;                       !- December Surface Ground Temperature {C}

OS:ThermalZone,
  {1bd8cfdf-5209-48b3-8c77-dcbbaf733709}, !- Handle
  conditioned space,                      !- Name
  1,                                      !- Multiplier
  ,                                       !- Ceiling Height {m}
  692.06373070848,                        !- Volume {m3}
  ,                                       !- Floor Area {m2}
  ,                                       !- Zone Inside Convection Algorithm
  ,                                       !- Zone Outside Convection Algorithm
  ,                                       !- Zone Conditioning Equipment List Name
  {786337d6-4792-4c78-b441-6f54798a4fa6}, !- Zone Air Inlet Port List
  {97538a3b-4f6c-4cff-a586-7a187f9fe797}, !- Zone Air Exhaust Port List
  {498df724-a4ed-4a0c-bd76-36d6c4c18692}, !- Zone Air Node Name
  {609a7cbf-8b3b-4006-841b-9e994a379eea}, !- Zone Return Air Port List
  ,                                       !- Primary Daylighting Control Name
  ,                                       !- Fraction of Zone Controlled by Primary Daylighting Control
  ,                                       !- Secondary Daylighting Control Name
  ,                                       !- Fraction of Zone Controlled by Secondary Daylighting Control
  ,                                       !- Illuminance Map Name
  ,                                       !- Group Rendering Name
  {befc69d0-b8bc-41bb-9a23-1e3c27aa41d5}, !- Thermostat Name
  No;                                     !- Use Ideal Air Loads

OS:Node,
  {3143513e-e095-42d8-b721-2f0b0c95eeb7}, !- Handle
  Node 1,                                 !- Name
  {498df724-a4ed-4a0c-bd76-36d6c4c18692}, !- Inlet Port
  ;                                       !- Outlet Port

OS:Connection,
  {498df724-a4ed-4a0c-bd76-36d6c4c18692}, !- Handle
  {1bd8cfdf-5209-48b3-8c77-dcbbaf733709}, !- Source Object
  11,                                     !- Outlet Port
  {3143513e-e095-42d8-b721-2f0b0c95eeb7}, !- Target Object
  2;                                      !- Inlet Port

OS:PortList,
  {786337d6-4792-4c78-b441-6f54798a4fa6}, !- Handle
  {1bd8cfdf-5209-48b3-8c77-dcbbaf733709}, !- HVAC Component
  {b8222bfb-8821-435a-a84e-f9b0ae59536b}; !- Port 1

OS:PortList,
  {97538a3b-4f6c-4cff-a586-7a187f9fe797}, !- Handle
  {1bd8cfdf-5209-48b3-8c77-dcbbaf733709}; !- HVAC Component

OS:PortList,
  {609a7cbf-8b3b-4006-841b-9e994a379eea}, !- Handle
  {1bd8cfdf-5209-48b3-8c77-dcbbaf733709}, !- HVAC Component
  {b4e95ee7-7e1c-40b3-850b-bfe6b3386653}; !- Port 1

OS:Sizing:Zone,
  {39868295-c784-4cd9-a4f9-7d91fa120ead}, !- Handle
  {1bd8cfdf-5209-48b3-8c77-dcbbaf733709}, !- Zone or ZoneList Name
  SupplyAirTemperature,                   !- Zone Cooling Design Supply Air Temperature Input Method
  14,                                     !- Zone Cooling Design Supply Air Temperature {C}
  11.11,                                  !- Zone Cooling Design Supply Air Temperature Difference {deltaC}
  SupplyAirTemperature,                   !- Zone Heating Design Supply Air Temperature Input Method
  40,                                     !- Zone Heating Design Supply Air Temperature {C}
  11.11,                                  !- Zone Heating Design Supply Air Temperature Difference {deltaC}
  0.0085,                                 !- Zone Cooling Design Supply Air Humidity Ratio {kg-H2O/kg-air}
  0.008,                                  !- Zone Heating Design Supply Air Humidity Ratio {kg-H2O/kg-air}
  ,                                       !- Zone Heating Sizing Factor
  ,                                       !- Zone Cooling Sizing Factor
  DesignDay,                              !- Cooling Design Air Flow Method
  ,                                       !- Cooling Design Air Flow Rate {m3/s}
  ,                                       !- Cooling Minimum Air Flow per Zone Floor Area {m3/s-m2}
  ,                                       !- Cooling Minimum Air Flow {m3/s}
  ,                                       !- Cooling Minimum Air Flow Fraction
  DesignDay,                              !- Heating Design Air Flow Method
  ,                                       !- Heating Design Air Flow Rate {m3/s}
  ,                                       !- Heating Maximum Air Flow per Zone Floor Area {m3/s-m2}
  ,                                       !- Heating Maximum Air Flow {m3/s}
  ,                                       !- Heating Maximum Air Flow Fraction
  No,                                     !- Account for Dedicated Outdoor Air System
  NeutralSupplyAir,                       !- Dedicated Outdoor Air System Control Strategy
  autosize,                               !- Dedicated Outdoor Air Low Setpoint Temperature for Design {C}
  autosize,                               !- Dedicated Outdoor Air High Setpoint Temperature for Design {C}
  Sensible Load Only No Latent Load,      !- Zone Load Sizing Method
  HumidityRatioDifference,                !- Zone Latent Cooling Design Supply Air Humidity Ratio Input Method
  ,                                       !- Zone Dehumidification Design Supply Air Humidity Ratio {kgWater/kgDryAir}
  0.005,                                  !- Zone Cooling Design Supply Air Humidity Ratio Difference {kgWater/kgDryAir}
  HumidityRatioDifference,                !- Zone Latent Heating Design Supply Air Humidity Ratio Input Method
  ,                                       !- Zone Humidification Design Supply Air Humidity Ratio {kgWater/kgDryAir}
  0.005,                                  !- Zone Humidification Design Supply Air Humidity Ratio Difference {kgWater/kgDryAir}
  ,                                       !- Zone Humidistat Dehumidification Set Point Schedule Name
  ,                                       !- Zone Humidistat Humidification Set Point Schedule Name
  ,                                       !- Design Zone Air Distribution Effectiveness in Cooling Mode
  ,                                       !- Design Zone Air Distribution Effectiveness in Heating Mode
  ,                                       !- Design Zone Secondary Recirculation Fraction {dimensionless}
  ,                                       !- Design Minimum Zone Ventilation Efficiency {dimensionless}
  Coincident;                             !- Sizing Option

OS:ZoneHVAC:EquipmentList,
  {417ba15e-6e17-47a5-a7fe-56174c952e8d}, !- Handle
  Zone HVAC Equipment List 1,             !- Name
  {1bd8cfdf-5209-48b3-8c77-dcbbaf733709}, !- Thermal Zone
  ,                                       !- Load Distribution Scheme
  {25f0284b-2b12-45bc-a3b5-4ea6b4df1f7c}, !- Zone Equipment 1
  1,                                      !- Zone Equipment Cooling Sequence 1
  1,                                      !- Zone Equipment Heating or No-Load Sequence 1
  {0c9d9f75-508e-4cec-96b2-3235918675ec}, !- Zone Equipment Sequential Cooling Fraction Schedule Name 1
  {4a8bd0dc-54ba-4b6f-8dbb-012e449b55e0}, !- Zone Equipment Sequential Heating Fraction Schedule Name 1
  {42697dec-a4ed-4142-a2a2-77179b3be08f}, !- Zone Equipment 2
  2,                                      !- Zone Equipment Cooling Sequence 2
  2,                                      !- Zone Equipment Heating or No-Load Sequence 2
  {7f0904d7-27de-4807-9181-60ce19be24c3}, !- Zone Equipment Sequential Cooling Fraction Schedule Name 2
  {e0fb6e20-8045-46bf-8616-aef79ae21a16}; !- Zone Equipment Sequential Heating Fraction Schedule Name 2

OS:AdditionalProperties,
  {155c2756-e725-459d-b98e-86fe70c80c2a}, !- Handle
  {1bd8cfdf-5209-48b3-8c77-dcbbaf733709}, !- Object Name
  ObjectType,                             !- Feature Name 1
  String,                                 !- Feature Data Type 1
  conditioned space;                      !- Feature Value 1

OS:Space,
  {c0e155fd-d68c-4660-b6a3-661ff961b43c}, !- Handle
  conditioned space 1,                    !- Name
  ,                                       !- Space Type Name
  ,                                       !- Default Construction Set Name
  ,                                       !- Default Schedule Set Name
  ,                                       !- Direction of Relative North {deg}
  ,                                       !- X Origin {m}
  ,                                       !- Y Origin {m}
  ,                                       !- Z Origin {m}
  ,                                       !- Building Story Name
  {1bd8cfdf-5209-48b3-8c77-dcbbaf733709}, !- Thermal Zone Name
  ,                                       !- Part of Total Floor Area
  ,                                       !- Design Specification Outdoor Air Object Name
  ,                                       !- Building Unit Name
  692.06373070848;                        !- Volume {m3}

OS:Schedule:Ruleset,
  {b143be82-d8e9-4658-8602-6a6d816d9fac}, !- Handle
  heating setpoint,                       !- Name
  {832eabb7-f361-4386-9df6-484090ab0d39}, !- Schedule Type Limits Name
  {b47a6dc3-9044-4792-8b97-651e328e1cd9}; !- Default Day Schedule Name

OS:Schedule:Day,
  {b47a6dc3-9044-4792-8b97-651e328e1cd9}, !- Handle
  heating setpoint default day,           !- Name
  {832eabb7-f361-4386-9df6-484090ab0d39}, !- Schedule Type Limits Name
  ,                                       !- Interpolate to Timestep
  24,                                     !- Hour 1
  0,                                      !- Minute 1
  0;                                      !- Value Until Time 1

OS:Schedule:Rule,
  {c1f373c8-6658-46cc-b8e2-22742c6d49ae}, !- Handle
  heating setpoint allday rule,           !- Name
  {b143be82-d8e9-4658-8602-6a6d816d9fac}, !- Schedule Ruleset Name
  0,                                      !- Rule Order
  {dae33511-c2f1-4742-b6a7-8e06b9920d3c}, !- Day Schedule Name
  Yes,                                    !- Apply Sunday
  Yes,                                    !- Apply Monday
  Yes,                                    !- Apply Tuesday
  Yes,                                    !- Apply Wednesday
  Yes,                                    !- Apply Thursday
  Yes,                                    !- Apply Friday
  Yes,                                    !- Apply Saturday
  DateRange,                              !- Date Specification Type
  1,                                      !- Start Month
  1,                                      !- Start Day
  12,                                     !- End Month
  31;                                     !- End Day

OS:Schedule:Day,
  {dae33511-c2f1-4742-b6a7-8e06b9920d3c}, !- Handle
  heating setpoint day,                   !- Name
  {832eabb7-f361-4386-9df6-484090ab0d39}, !- Schedule Type Limits Name
  ,                                       !- Interpolate to Timestep
  24,                                     !- Hour 1
  0,                                      !- Minute 1
  20;                                     !- Value Until Time 1

OS:Schedule:Ruleset,
  {aadc05e3-a9db-42fa-895c-c15fa5874935}, !- Handle
  cooling setpoint,                       !- Name
  {832eabb7-f361-4386-9df6-484090ab0d39}, !- Schedule Type Limits Name
  {f9177668-88e7-461e-8d4f-5d64d4599c00}; !- Default Day Schedule Name

OS:Schedule:Day,
  {f9177668-88e7-461e-8d4f-5d64d4599c00}, !- Handle
  cooling setpoint default day,           !- Name
  {832eabb7-f361-4386-9df6-484090ab0d39}, !- Schedule Type Limits Name
  ,                                       !- Interpolate to Timestep
  24,                                     !- Hour 1
  0,                                      !- Minute 1
  0;                                      !- Value Until Time 1

OS:Schedule:Rule,
  {8c81c6cf-78ab-4948-8b1d-a998a5009cfd}, !- Handle
  cooling setpoint allday rule,           !- Name
  {aadc05e3-a9db-42fa-895c-c15fa5874935}, !- Schedule Ruleset Name
  0,                                      !- Rule Order
  {55afafde-083a-4bdf-b8fc-3ee98f0c4694}, !- Day Schedule Name
  Yes,                                    !- Apply Sunday
  Yes,                                    !- Apply Monday
  Yes,                                    !- Apply Tuesday
  Yes,                                    !- Apply Wednesday
  Yes,                                    !- Apply Thursday
  Yes,                                    !- Apply Friday
  Yes,                                    !- Apply Saturday
  DateRange,                              !- Date Specification Type
  1,                                      !- Start Month
  1,                                      !- Start Day
  12,                                     !- End Month
  31;                                     !- End Day

OS:Schedule:Day,
  {55afafde-083a-4bdf-b8fc-3ee98f0c4694}, !- Handle
  cooling setpoint day,                   !- Name
  {832eabb7-f361-4386-9df6-484090ab0d39}, !- Schedule Type Limits Name
  ,                                       !- Interpolate to Timestep
  24,                                     !- Hour 1
  0,                                      !- Minute 1
  25.5555555555556;                       !- Value Until Time 1

OS:ThermostatSetpoint:DualSetpoint,
  {befc69d0-b8bc-41bb-9a23-1e3c27aa41d5}, !- Handle
  conditioned space temperature setpoint, !- Name
  {b143be82-d8e9-4658-8602-6a6d816d9fac}, !- Heating Setpoint Temperature Schedule Name
  {aadc05e3-a9db-42fa-895c-c15fa5874935}, !- Cooling Setpoint Temperature Schedule Name
  0;                                      !- Temperature Difference Between Cutout And Setpoint {deltaC}

OS:ScheduleTypeLimits,
  {832eabb7-f361-4386-9df6-484090ab0d39}, !- Handle
  Temperature,                            !- Name
  ,                                       !- Lower Limit Value
  ,                                       !- Upper Limit Value
  Continuous,                             !- Numeric Type
  Temperature;                            !- Unit Type

OS:Surface,
  {2911162f-b7fc-44e7-8771-e86d2b1eb5c4}, !- Handle
  Roof1,                                  !- Name
  RoofCeiling,                            !- Surface Type
  {2eb213e8-e682-40d4-ab39-cc3ae8ced5d7}, !- Construction Name
  {8176fc24-db91-4776-885d-6c161b13c00a}, !- Space Name
  Outdoors,                               !- Outside Boundary Condition
  ,                                       !- Outside Boundary Condition Object
  SunExposed,                             !- Sun Exposure
  WindExposed,                            !- Wind Exposure
  ,                                       !- View Factor to Ground
  ,                                       !- Number of Vertices
  -26.9347048849634, 58.0557891618865, 2.4384, !- X,Y,Z Vertex 1 {m}
  -26.9347048849634, 46.7895631136661, 8.0715130241102, !- X,Y,Z Vertex 2 {m}
  -14.3386812381136, 46.7895631136661, 8.0715130241102, !- X,Y,Z Vertex 3 {m}
  -14.3386812381136, 58.0557891618865, 2.4384; !- X,Y,Z Vertex 4 {m}

OS:AdditionalProperties,
  {cf193474-dfbc-4bd1-aea4-960356e15113}, !- Handle
  {2911162f-b7fc-44e7-8771-e86d2b1eb5c4}, !- Object Name
  Length,                                 !- Feature Name 1
  Double,                                 !- Feature Data Type 1
  41.325536899113608,                     !- Feature Value 1
  Width,                                  !- Feature Name 2
  Double,                                 !- Feature Data Type 2
  41.325536899113601,                     !- Feature Value 2
  Azimuth,                                !- Feature Name 3
  Integer,                                !- Feature Data Type 3
  0,                                      !- Feature Value 3
  Tilt,                                   !- Feature Name 4
  Double,                                 !- Feature Data Type 4
  0.5,                                    !- Feature Value 4
  SurfaceType,                            !- Feature Name 5
  String,                                 !- Feature Data Type 5
  Roof;                                   !- Feature Value 5

OS:ThermalZone,
  {4fcc079e-2ccf-4c93-8bc2-d37bbac0996f}, !- Handle
  attic - vented,                         !- Name
  1,                                      !- Multiplier
  ,                                       !- Ceiling Height {m}
  356.389957095237,                       !- Volume {m3}
  ,                                       !- Floor Area {m2}
  ,                                       !- Zone Inside Convection Algorithm
  ,                                       !- Zone Outside Convection Algorithm
  ,                                       !- Zone Conditioning Equipment List Name
  {4e3b812a-19ba-442e-89c9-4ca6c685cad0}, !- Zone Air Inlet Port List
  {0e50c8a5-c110-49d2-b9a2-3388771bb30d}, !- Zone Air Exhaust Port List
  {852f0ce4-0f3c-4553-b479-2eb0c10ce02b}, !- Zone Air Node Name
  {acad3e9f-e234-4782-8ac3-19cf287474ea}, !- Zone Return Air Port List
  ,                                       !- Primary Daylighting Control Name
  ,                                       !- Fraction of Zone Controlled by Primary Daylighting Control
  ,                                       !- Secondary Daylighting Control Name
  ,                                       !- Fraction of Zone Controlled by Secondary Daylighting Control
  ,                                       !- Illuminance Map Name
  ,                                       !- Group Rendering Name
  ,                                       !- Thermostat Name
  No;                                     !- Use Ideal Air Loads

OS:Node,
  {197c0471-4519-47d2-b998-0c41c9ed3f8c}, !- Handle
  Node 2,                                 !- Name
  {852f0ce4-0f3c-4553-b479-2eb0c10ce02b}, !- Inlet Port
  ;                                       !- Outlet Port

OS:Connection,
  {852f0ce4-0f3c-4553-b479-2eb0c10ce02b}, !- Handle
  {4fcc079e-2ccf-4c93-8bc2-d37bbac0996f}, !- Source Object
  11,                                     !- Outlet Port
  {197c0471-4519-47d2-b998-0c41c9ed3f8c}, !- Target Object
  2;                                      !- Inlet Port

OS:PortList,
  {4e3b812a-19ba-442e-89c9-4ca6c685cad0}, !- Handle
  {4fcc079e-2ccf-4c93-8bc2-d37bbac0996f}; !- HVAC Component

OS:PortList,
  {0e50c8a5-c110-49d2-b9a2-3388771bb30d}, !- Handle
  {4fcc079e-2ccf-4c93-8bc2-d37bbac0996f}; !- HVAC Component

OS:PortList,
  {acad3e9f-e234-4782-8ac3-19cf287474ea}, !- Handle
  {4fcc079e-2ccf-4c93-8bc2-d37bbac0996f}; !- HVAC Component

OS:Sizing:Zone,
  {7bb16886-8af2-4dad-bc54-bd16be77897d}, !- Handle
  {4fcc079e-2ccf-4c93-8bc2-d37bbac0996f}, !- Zone or ZoneList Name
  SupplyAirTemperature,                   !- Zone Cooling Design Supply Air Temperature Input Method
  14,                                     !- Zone Cooling Design Supply Air Temperature {C}
  11.11,                                  !- Zone Cooling Design Supply Air Temperature Difference {deltaC}
  SupplyAirTemperature,                   !- Zone Heating Design Supply Air Temperature Input Method
  40,                                     !- Zone Heating Design Supply Air Temperature {C}
  11.11,                                  !- Zone Heating Design Supply Air Temperature Difference {deltaC}
  0.0085,                                 !- Zone Cooling Design Supply Air Humidity Ratio {kg-H2O/kg-air}
  0.008,                                  !- Zone Heating Design Supply Air Humidity Ratio {kg-H2O/kg-air}
  ,                                       !- Zone Heating Sizing Factor
  ,                                       !- Zone Cooling Sizing Factor
  DesignDay,                              !- Cooling Design Air Flow Method
  ,                                       !- Cooling Design Air Flow Rate {m3/s}
  ,                                       !- Cooling Minimum Air Flow per Zone Floor Area {m3/s-m2}
  ,                                       !- Cooling Minimum Air Flow {m3/s}
  ,                                       !- Cooling Minimum Air Flow Fraction
  DesignDay,                              !- Heating Design Air Flow Method
  ,                                       !- Heating Design Air Flow Rate {m3/s}
  ,                                       !- Heating Maximum Air Flow per Zone Floor Area {m3/s-m2}
  ,                                       !- Heating Maximum Air Flow {m3/s}
  ,                                       !- Heating Maximum Air Flow Fraction
  No,                                     !- Account for Dedicated Outdoor Air System
  NeutralSupplyAir,                       !- Dedicated Outdoor Air System Control Strategy
  autosize,                               !- Dedicated Outdoor Air Low Setpoint Temperature for Design {C}
  autosize,                               !- Dedicated Outdoor Air High Setpoint Temperature for Design {C}
  Sensible Load Only No Latent Load,      !- Zone Load Sizing Method
  HumidityRatioDifference,                !- Zone Latent Cooling Design Supply Air Humidity Ratio Input Method
  ,                                       !- Zone Dehumidification Design Supply Air Humidity Ratio {kgWater/kgDryAir}
  0.005,                                  !- Zone Cooling Design Supply Air Humidity Ratio Difference {kgWater/kgDryAir}
  HumidityRatioDifference,                !- Zone Latent Heating Design Supply Air Humidity Ratio Input Method
  ,                                       !- Zone Humidification Design Supply Air Humidity Ratio {kgWater/kgDryAir}
  0.005,                                  !- Zone Humidification Design Supply Air Humidity Ratio Difference {kgWater/kgDryAir}
  ,                                       !- Zone Humidistat Dehumidification Set Point Schedule Name
  ,                                       !- Zone Humidistat Humidification Set Point Schedule Name
  ,                                       !- Design Zone Air Distribution Effectiveness in Cooling Mode
  ,                                       !- Design Zone Air Distribution Effectiveness in Heating Mode
  ,                                       !- Design Zone Secondary Recirculation Fraction {dimensionless}
  ,                                       !- Design Minimum Zone Ventilation Efficiency {dimensionless}
  Coincident;                             !- Sizing Option

OS:ZoneHVAC:EquipmentList,
  {e74b61d0-ca5d-4a69-9bdb-a6eb5b724e88}, !- Handle
  Zone HVAC Equipment List 2,             !- Name
  {4fcc079e-2ccf-4c93-8bc2-d37bbac0996f}; !- Thermal Zone

OS:AdditionalProperties,
  {8933421e-b28a-4e82-84c0-613d5923e078}, !- Handle
  {4fcc079e-2ccf-4c93-8bc2-d37bbac0996f}, !- Object Name
  ObjectType,                             !- Feature Name 1
  String,                                 !- Feature Data Type 1
  attic - vented;                         !- Feature Value 1

OS:Space,
  {8176fc24-db91-4776-885d-6c161b13c00a}, !- Handle
  attic - vented 1,                       !- Name
  ,                                       !- Space Type Name
  ,                                       !- Default Construction Set Name
  ,                                       !- Default Schedule Set Name
  ,                                       !- Direction of Relative North {deg}
  ,                                       !- X Origin {m}
  ,                                       !- Y Origin {m}
  ,                                       !- Z Origin {m}
  ,                                       !- Building Story Name
  {4fcc079e-2ccf-4c93-8bc2-d37bbac0996f}, !- Thermal Zone Name
  ,                                       !- Part of Total Floor Area
  ,                                       !- Design Specification Outdoor Air Object Name
  ,                                       !- Building Unit Name
  356.389957095237;                       !- Volume {m3}

OS:Material,
  {1534ca84-ce15-475d-af8a-779b6b4b3740}, !- Handle
  asphalt or fiberglass shingles,         !- Name