
OS:Version,
  {b4d85865-449a-41a0-a93b-31dce91d4d73}, !- Handle
  3.10.0;                                 !- Version Identifier

OS:SimulationControl,
  {fb52c181-4fd8-4630-a6e8-87079aedc4b8}, !- Handle
  ,                                       !- Do Zone Sizing Calculation
  ,                                       !- Do System Sizing Calculation
  ,                                       !- Do Plant Sizing Calculation
  No;                                     !- Run Simulation for Sizing Periods

OS:Timestep,
  {498b17d0-6f58-4c6f-b3e9-21cffa2ff439}, !- Handle
  1;                                      !- Number of Timesteps per Hour

OS:ShadowCalculation,
  {c05b6416-e79d-441b-9489-cf87db10b788}, !- Handle
  PolygonClipping,                        !- Shading Calculation Method
  ,                                       !- Shading Calculation Update Frequency Method
  20,                                     !- Shading Calculation Update Frequency
  200,                                    !- Maximum Figures in Shadow Overlap Calculations
  ,                                       !- Polygon Clipping Algorithm
  512,                                    !- Pixel Counting Resolution
  ,                                       !- Sky Diffuse Modeling Algorithm
  No,                                     !- Output External Shading Calculation Results
  No,                                     !- Disable Self-Shading Within Shading Zone Groups
  No;                                     !- Disable Self-Shading From Shading Zone Groups to Other Zones

OS:SurfaceConvectionAlgorithm:Outside,
  {4a1b6b12-f00c-4df4-8802-7e5cd7ef789f}, !- Handle
  DOE-2;                                  !- Algorithm

OS:SurfaceConvectionAlgorithm:Inside,
  {7f9471bf-a78f-4810-b331-1a3497213e4e}, !- Handle
  TARP;                                   !- Algorithm

OS:ZoneCapacitanceMultiplier:ResearchSpecial,
  {9fd781ad-cc8c-401c-a818-367d9b5fa5d4}, !- Handle
  7,                                      !- Temperature Capacity Multiplier
  15,                                     !- Humidity Capacity Multiplier
  ;                                       !- Carbon Dioxide Capacity Multiplier

OS:ConvergenceLimits,
  {d00667c4-de60-43fa-9cbb-abc344e85509}, !- Handle
  0;                                      !- Minimum System Timestep {minutes}

OS:RunPeriod,
  {04efc87e-6f36-4b31-88d2-525758dd783d}, !- Handle
  Run Period 1,                           !- Name
  1,                                      !- Begin Month
  1,                                      !- Begin Day of Month
  12,                                     !- End Month
  31,                                     !- End Day of Month
  ,                                       !- Use Weather File Holidays and Special Days
  ,                                       !- Use Weather File Daylight Saving Period
  ,                                       !- Apply Weekend Holiday Rule
  ,                                       !- Use Weather File Rain Indicators
  ,                                       !- Use Weather File Snow Indicators
  ;                                       !- Number of Times Runperiod to be Repeated

OS:PerformancePrecisionTradeoffs,
  {01020feb-182b-4817-81d2-0a46ea1dcf4d}, !- Handle
  ,                                       !- Use Coil Direct Solutions
  CarrollMRT;                             !- Zone Radiant Exchange Algorithm

OS:WeatherFile,
  {6c749f1f-a3e7-4bc7-a1bf-8e3de175697b}, !- Handle
  Buffalo Niagara Intl Ap,                !- City
  NY,                                     !- State Province Region
  USA,                                    !- Country
  TMY3,                                   !- Data Source
  725280,                                 !- WMO Number
  42.93,                                  !- Latitude {deg}
  -78.73,                                 !- Longitude {deg}
  -5,                                     !- Time Zone {hr}
  215,                                    !- Elevation {m}
  /Users/nmoore/github/urbanopt-example-geojson-project/example_project/weather/USA_NY_Buffalo-Greater.Buffalo.Intl.AP.725280_TMY3.epw, !- Url
  6B50E0FF,                               !- Checksum
  ,                                       !- Start Date Actual Year
  Sunday;                                 !- Start Day of Week

OS:YearDescription,
  {f5f91837-69c6-43b3-92a1-8946f476cebb}, !- Handle
  2007,                                   !- Calendar Year
  ,                                       !- Day of Week for Start Day
  ;                                       !- Is Leap Year

OS:Site,
  {7db47b50-3fbc-45ac-9c10-86455e9e49fd}, !- Handle
  Buffalo Niagara Intl Ap_NY,             !- Name
  42.93,                                  !- Latitude {deg}
  -78.73,                                 !- Longitude {deg}
  -5,                                     !- Time Zone {hr}
  215,                                    !- Elevation {m}
  Suburbs,                                !- Terrain
  Yes;                                    !- Keep Site Location Information

OS:RunPeriodControl:DaylightSavingTime,
  {2ea7f5e8-8395-4518-90a4-6bb6c0eb6eb6}, !- Handle
  Mar 12,                                 !- Start Date
  Nov 5;                                  !- End Date

OS:Site:GroundTemperature:Shallow,
  {eaed6239-bc44-4472-9ef3-fbe723e52e79}, !- Handle
  4.30207395723828,                       !- January Surface Ground Temperature {C}
  2.29327249652502,                       !- February Surface Ground Temperature {C}
  2.13240047156047,                       !- March Surface Ground Temperature {C}
  3.08567940719286,                       !- April Surface Ground Temperature {C}
  6.91256312497526,                       !- May Surface Ground Temperature {C}
  10.7216195949507,                       !- June Surface Ground Temperature {C}
  14.0238679822574,                       !- July Surface Ground Temperature {C}
  16.1157611184724,                       !- August Surface Ground Temperature {C}
  16.2934789303462,                       !- September Surface Ground Temperature {C}
  14.5920754632847,                       !- October Surface Ground Temperature {C}
  11.374036348653,                        !- November Surface Ground Temperature {C}
  7.68182621661674;                       !- December Surface Ground Temperature {C}

OS:ThermalZone,
  {a68dc050-ba6a-463c-8aa0-2c0f8b782dfd}, !- Handle
  conditioned space,                      !- Name
  1,                                      !- Multiplier
  ,                                       !- Ceiling Height {m}
  692.06373070848,                        !- Volume {m3}
  ,                                       !- Floor Area {m2}
  ,                                       !- Zone Inside Convection Algorithm
  ,                                       !- Zone Outside Convection Algorithm
  ,                                       !- Zone Conditioning Equipment List Name
  {df16077b-1021-44c2-8abf-25b38ad76319}, !- Zone Air Inlet Port List
  {7440ca82-7f7a-486d-9a3b-9489fa01cf2e}, !- Zone Air Exhaust Port List
  {09773509-3672-4386-9476-4dff17a2081c}, !- Zone Air Node Name
  {5df05b83-ff09-4ff7-822d-cde661588498}, !- Zone Return Air Port List
  ,                                       !- Primary Daylighting Control Name
  ,                                       !- Fraction of Zone Controlled by Primary Daylighting Control
  ,                                       !- Secondary Daylighting Control Name
  ,                                       !- Fraction of Zone Controlled by Secondary Daylighting Control
  ,                                       !- Illuminance Map Name
  ,                                       !- Group Rendering Name
  {2e780042-a1d3-4636-8023-0520f0316832}, !- Thermostat Name
  No;                                     !- Use Ideal Air Loads

OS:Node,
  {8a7456d6-074d-4214-99a5-8fa2821b91bd}, !- Handle
  Node 1,                                 !- Name
  {09773509-3672-4386-9476-4dff17a2081c}, !- Inlet Port
  ;                                       !- Outlet Port

OS:Connection,
  {09773509-3672-4386-9476-4dff17a2081c}, !- Handle
  {a68dc050-ba6a-463c-8aa0-2c0f8b782dfd}, !- Source Object
  11,                                     !- Outlet Port
  {8a7456d6-074d-4214-99a5-8fa2821b91bd}, !- Target Object
  2;                                      !- Inlet Port

OS:PortList,
  {df16077b-1021-44c2-8abf-25b38ad76319}, !- Handle
  {a68dc050-ba6a-463c-8aa0-2c0f8b782dfd}, !- HVAC Component
  {ef7a2c32-8c03-487f-be96-b40849fb3f04}; !- Port 1

OS:PortList,
  {7440ca82-7f7a-486d-9a3b-9489fa01cf2e}, !- Handle
  {a68dc050-ba6a-463c-8aa0-2c0f8b782dfd}; !- HVAC Component

OS:PortList,
  {5df05b83-ff09-4ff7-822d-cde661588498}, !- Handle
  {a68dc050-ba6a-463c-8aa0-2c0f8b782dfd}, !- HVAC Component
  {1e5eea54-379f-4dbb-aa12-7bd15eb6824b}; !- Port 1

OS:Sizing:Zone,
  {d23f6d69-ede3-43b6-9c5d-e33dd3e9c85a}, !- Handle
  {a68dc050-ba6a-463c-8aa0-2c0f8b782dfd}, !- Zone or ZoneList Name
  SupplyAirTemperature,                   !- Zone Cooling Design Supply Air Temperature Input Method
  14,                                     !- Zone Cooling Design Supply Air Temperature {C}
  11.11,                                  !- Zone Cooling Design Supply Air Temperature Difference {deltaC}
  SupplyAirTemperature,                   !- Zone Heating Design Supply Air Temperature Input Method
  40,                                     !- Zone Heating Design Supply Air Temperature {C}
  11.11,                                  !- Zone Heating Design Supply Air Temperature Difference {deltaC}
  0.0085,                                 !- Zone Cooling Design Supply Air Humidity Ratio {kg-H2O/kg-air}
  0.008,                                  !- Zone Heating Design Supply Air Humidity Ratio {kg-H2O/kg-air}
  ,                                       !- Zone Heating Sizing Factor
  ,                                       !- Zone Cooling Sizing Factor
  DesignDay,                              !- Cooling Design Air Flow Method
  ,                                       !- Cooling Design Air Flow Rate {m3/s}
  ,                                       !- Cooling Minimum Air Flow per Zone Floor Area {m3/s-m2}
  ,                                       !- Cooling Minimum Air Flow {m3/s}
  ,                                       !- Cooling Minimum Air Flow Fraction
  DesignDay,                              !- Heating Design Air Flow Method
  ,                                       !- Heating Design Air Flow Rate {m3/s}
  ,                                       !- Heating Maximum Air Flow per Zone Floor Area {m3/s-m2}
  ,                                       !- Heating Maximum Air Flow {m3/s}
  ,                                       !- Heating Maximum Air Flow Fraction
  No,                                     !- Account for Dedicated Outdoor Air System
  NeutralSupplyAir,                       !- Dedicated Outdoor Air System Control Strategy
  autosize,                               !- Dedicated Outdoor Air Low Setpoint Temperature for Design {C}
  autosize,                               !- Dedicated Outdoor Air High Setpoint Temperature for Design {C}
  Sensible Load Only No Latent Load,      !- Zone Load Sizing Method
  HumidityRatioDifference,                !- Zone Latent Cooling Design Supply Air Humidity Ratio Input Method
  ,                                       !- Zone Dehumidification Design Supply Air Humidity Ratio {kgWater/kgDryAir}
  0.005,                                  !- Zone Cooling Design Supply Air Humidity Ratio Difference {kgWater/kgDryAir}
  HumidityRatioDifference,                !- Zone Latent Heating Design Supply Air Humidity Ratio Input Method
  ,                                       !- Zone Humidification Design Supply Air Humidity Ratio {kgWater/kgDryAir}
  0.005,                                  !- Zone Humidification Design Supply Air Humidity Ratio Difference {kgWater/kgDryAir}
  ,                                       !- Zone Humidistat Dehumidification Set Point Schedule Name
  ,                                       !- Zone Humidistat Humidification Set Point Schedule Name
  ,                                       !- Design Zone Air Distribution Effectiveness in Cooling Mode
  ,                                       !- Design Zone Air Distribution Effectiveness in Heating Mode
  ,                                       !- Design Zone Secondary Recirculation Fraction {dimensionless}
  ,                                       !- Design Minimum Zone Ventilation Efficiency {dimensionless}
  Coincident;                             !- Sizing Option

OS:ZoneHVAC:EquipmentList,
  {c9cd7b34-3b13-4ed6-aa67-fa92807694ac}, !- Handle
  Zone HVAC Equipment List 1,             !- Name
  {a68dc050-ba6a-463c-8aa0-2c0f8b782dfd}, !- Thermal Zone
  ,                                       !- Load Distribution Scheme
  {1330a8b6-f28a-494d-9691-1f32b6f01531}, !- Zone Equipment 1
  1,                                      !- Zone Equipment Cooling Sequence 1
  1,                                      !- Zone Equipment Heating or No-Load Sequence 1
  {2cdc6f23-df93-42f1-8252-c336d62052a1}, !- Zone Equipment Sequential Cooling Fraction Schedule Name 1
  {c53abc06-524d-49a8-91b3-701c71060a86}, !- Zone Equipment Sequential Heating Fraction Schedule Name 1
  {9129a3ae-0488-4be8-b8df-29b7981e0d74}, !- Zone Equipment 2
  2,                                      !- Zone Equipment Cooling Sequence 2
  2,                                      !- Zone Equipment Heating or No-Load Sequence 2
  {b0f3ecff-92b1-402a-aaa5-13e7d002a301}, !- Zone Equipment Sequential Cooling Fraction Schedule Name 2
  {6a55fee3-e6e0-47a3-9f34-f3ae91874965}; !- Zone Equipment Sequential Heating Fraction Schedule Name 2

OS:AdditionalProperties,
  {eed11d3e-7317-4be3-8238-0a4cfa6d7ed8}, !- Handle
  {a68dc050-ba6a-463c-8aa0-2c0f8b782dfd}, !- Object Name
  ObjectType,                             !- Feature Name 1
  String,                                 !- Feature Data Type 1
  conditioned space;                      !- Feature Value 1

OS:Space,
  {f79355b9-b00b-4775-9dd3-3b74de56b535}, !- Handle
  conditioned space 1,                    !- Name
  ,                                       !- Space Type Name
  ,                                       !- Default Construction Set Name
  ,                                       !- Default Schedule Set Name
  ,                                       !- Direction of Relative North {deg}
  ,                                       !- X Origin {m}
  ,                                       !- Y Origin {m}
  ,                                       !- Z Origin {m}
  ,                                       !- Building Story Name
  {a68dc050-ba6a-463c-8aa0-2c0f8b782dfd}, !- Thermal Zone Name
  ,                                       !- Part of Total Floor Area
  ,                                       !- Design Specification Outdoor Air Object Name
  ,                                       !- Building Unit Name
  692.06373070848;                        !- Volume {m3}

OS:Schedule:Ruleset,
  {f86f6af9-3692-4827-aac2-65df4c94ec4e}, !- Handle
  heating setpoint,                       !- Name
  {79da3908-60c8-4b58-bd70-f6b8d97a831e}, !- Schedule Type Limits Name
  {7ab87988-4e56-4c05-8cd8-3cfdf11d6854}; !- Default Day Schedule Name

OS:Schedule:Day,
  {7ab87988-4e56-4c05-8cd8-3cfdf11d6854}, !- Handle
  heating setpoint default day,           !- Name
  {79da3908-60c8-4b58-bd70-f6b8d97a831e}, !- Schedule Type Limits Name
  ,                                       !- Interpolate to Timestep
  24,                                     !- Hour 1
  0,                                      !- Minute 1
  0;                                      !- Value Until Time 1

OS:Schedule:Rule,
  {c8481006-fe35-4d4e-b17b-1240f9a24377}, !- Handle
  heating setpoint allday rule,           !- Name
  {f86f6af9-3692-4827-aac2-65df4c94ec4e}, !- Schedule Ruleset Name
  0,                                      !- Rule Order
  {6b55fa1c-e4a6-46f6-b74d-a189319bce4c}, !- Day Schedule Name
  Yes,                                    !- Apply Sunday
  Yes,                                    !- Apply Monday
  Yes,                                    !- Apply Tuesday
  Yes,                                    !- Apply Wednesday
  Yes,                                    !- Apply Thursday
  Yes,                                    !- Apply Friday
  Yes,                                    !- Apply Saturday
  DateRange,                              !- Date Specification Type
  1,                                      !- Start Month
  1,                                      !- Start Day
  12,                                     !- End Month
  31;                                     !- End Day

OS:Schedule:Day,
  {6b55fa1c-e4a6-46f6-b74d-a189319bce4c}, !- Handle
  heating setpoint day,                   !- Name
  {79da3908-60c8-4b58-bd70-f6b8d97a831e}, !- Schedule Type Limits Name
  ,                                       !- Interpolate to Timestep
  24,                                     !- Hour 1
  0,                                      !- Minute 1
  20;                                     !- Value Until Time 1

OS:Schedule:Ruleset,
  {4993a555-ec4d-4c43-85a0-3da800200c51}, !- Handle
  cooling setpoint,                       !- Name
  {79da3908-60c8-4b58-bd70-f6b8d97a831e}, !- Schedule Type Limits Name
  {b9a5415b-9bcf-4c8f-be82-0ba42fe944f0}; !- Default Day Schedule Name

OS:Schedule:Day,
  {b9a5415b-9bcf-4c8f-be82-0ba42fe944f0}, !- Handle
  cooling setpoint default day,           !- Name
  {79da3908-60c8-4b58-bd70-f6b8d97a831e}, !- Schedule Type Limits Name
  ,                                       !- Interpolate to Timestep
  24,                                     !- Hour 1
  0,                                      !- Minute 1
  0;                                      !- Value Until Time 1

OS:Schedule:Rule,
  {248950fd-f2b2-4bd9-a761-a1f6846ccda6}, !- Handle
  cooling setpoint allday rule,           !- Name
  {4993a555-ec4d-4c43-85a0-3da800200c51}, !- Schedule Ruleset Name
  0,                                      !- Rule Order
  {e0477e58-3a4b-4640-81d3-5a45412a0df8}, !- Day Schedule Name
  Yes,                                    !- Apply Sunday
  Yes,                                    !- Apply Monday
  Yes,                                    !- Apply Tuesday
  Yes,                                    !- Apply Wednesday
  Yes,                                    !- Apply Thursday
  Yes,                                    !- Apply Friday
  Yes,                                    !- Apply Saturday
  DateRange,                              !- Date Specification Type
  1,                                      !- Start Month
  1,                                      !- Start Day
  12,                                     !- End Month
  31;                                     !- End Day

OS:Schedule:Day,
  {e0477e58-3a4b-4640-81d3-5a45412a0df8}, !- Handle
  cooling setpoint day,                   !- Name
  {79da3908-60c8-4b58-bd70-f6b8d97a831e}, !- Schedule Type Limits Name
  ,                                       !- Interpolate to Timestep
  24,                                     !- Hour 1
  0,                                      !- Minute 1
  25.5555555555556;                       !- Value Until Time 1

OS:ThermostatSetpoint:DualSetpoint,
  {2e780042-a1d3-4636-8023-0520f0316832}, !- Handle
  conditioned space temperature setpoint, !- Name
  {f86f6af9-3692-4827-aac2-65df4c94ec4e}, !- Heating Setpoint Temperature Schedule Name
  {4993a555-ec4d-4c43-85a0-3da800200c51}, !- Cooling Setpoint Temperature Schedule Name
  0;                                      !- Temperature Difference Between Cutout And Setpoint {deltaC}

OS:ScheduleTypeLimits,
  {79da3908-60c8-4b58-bd70-f6b8d97a831e}, !- Handle
  Temperature,                            !- Name
  ,                                       !- Lower Limit Value
  ,                                       !- Upper Limit Value
  Continuous,                             !- Numeric Type
  Temperature;                            !- Unit Type

OS:Surface,
  {bf13e139-d6b3-4ce6-b184-99aa0044712c}, !- Handle
  Roof1,                                  !- Name
  RoofCeiling,                            !- Surface Type
  {8bcd69ee-5538-4326-bb2c-089c1392d310}, !- Construction Name
  {d4ebb153-51ed-465e-a812-ff09cbd44eba}, !- Space Name
  Outdoors,                               !- Outside Boundary Condition
  ,                                       !- Outside Boundary Condition Object
  SunExposed,                             !- Sun Exposure
  WindExposed,                            !- Wind Exposure
  ,                                       !- View Factor to Ground
  ,                                       !- Number of Vertices
  -26.9347048849634, 58.0557891618865, 2.4384, !- X,Y,Z Vertex 1 {m}
  -26.9347048849634, 46.7895631136661, 8.0715130241102, !- X,Y,Z Vertex 2 {m}
  -14.3386812381136, 46.7895631136661, 8.0715130241102, !- X,Y,Z Vertex 3 {m}
  -14.3386812381136, 58.0557891618865, 2.4384; !- X,Y,Z Vertex 4 {m}

OS:AdditionalProperties,
  {ff2ebff0-1263-4487-910e-0401321b3f20}, !- Handle
  {bf13e139-d6b3-4ce6-b184-99aa0044712c}, !- Object Name
  Length,                                 !- Feature Name 1
  Double,                                 !- Feature Data Type 1
  41.325536899113608,                     !- Feature Value 1
  Width,                                  !- Feature Name 2
  Double,                                 !- Feature Data Type 2
  41.325536899113601,                     !- Feature Value 2
  Azimuth,                                !- Feature Name 3
  Integer,                                !- Feature Data Type 3
  0,                                      !- Feature Value 3
  Tilt,                                   !- Feature Name 4
  Double,                                 !- Feature Data Type 4
  0.5,                                    !- Feature Value 4
  SurfaceType,                            !- Feature Name 5
  String,                                 !- Feature Data Type 5
  Roof;                                   !- Feature Value 5

OS:ThermalZone,
  {094e261d-3d5b-43b0-ab6c-b97409c0bba4}, !- Handle
  attic - vented,                         !- Name
  1,                                      !- Multiplier
  ,                                       !- Ceiling Height {m}
  356.390921899745,                       !- Volume {m3}
  ,                                       !- Floor Area {m2}
  ,                                       !- Zone Inside Convection Algorithm
  ,                                       !- Zone Outside Convection Algorithm
  ,                                       !- Zone Conditioning Equipment List Name
  {d208f6bf-fb41-4d44-81b4-c040ed3d5fa6}, !- Zone Air Inlet Port List
  {9d884b02-a7d4-4b49-9bd7-f7f1ef5896fb}, !- Zone Air Exhaust Port List
  {88e7281a-e105-412b-9463-4a767e11175c}, !- Zone Air Node Name
  {25b90872-f50b-45a5-ad10-e6b5c33ce3db}, !- Zone Return Air Port List
  ,                                       !- Primary Daylighting Control Name
  ,                                       !- Fraction of Zone Controlled by Primary Daylighting Control
  ,                                       !- Secondary Daylighting Control Name
  ,                                       !- Fraction of Zone Controlled by Secondary Daylighting Control
  ,                                       !- Illuminance Map Name
  ,                                       !- Group Rendering Name
  ,                                       !- Thermostat Name
  No;                                     !- Use Ideal Air Loads

OS:Node,
  {5dd44fcd-19d8-4dd8-80f4-6d695c05fc1b}, !- Handle
  Node 2,                                 !- Name
  {88e7281a-e105-412b-9463-4a767e11175c}, !- Inlet Port
  ;                                       !- Outlet Port

OS:Connection,
  {88e7281a-e105-412b-9463-4a767e11175c}, !- Handle
  {094e261d-3d5b-43b0-ab6c-b97409c0bba4}, !- Source Object
  11,                                     !- Outlet Port
  {5dd44fcd-19d8-4dd8-80f4-6d695c05fc1b}, !- Target Object
  2;                                      !- Inlet Port

OS:PortList,
  {d208f6bf-fb41-4d44-81b4-c040ed3d5fa6}, !- Handle
  {094e261d-3d5b-43b0-ab6c-b97409c0bba4}; !- HVAC Component

OS:PortList,
  {9d884b02-a7d4-4b49-9bd7-f7f1ef5896fb}, !- Handle
  {094e261d-3d5b-43b0-ab6c-b97409c0bba4}; !- HVAC Component

OS:PortList,
  {25b90872-f50b-45a5-ad10-e6b5c33ce3db}, !- Handle
  {094e261d-3d5b-43b0-ab6c-b97409c0bba4}; !- HVAC Component

OS:Sizing:Zone,
  {47f25459-7083-4d13-98a9-9d4ecb605211}, !- Handle
  {094e261d-3d5b-43b0-ab6c-b97409c0bba4}, !- Zone or ZoneList Name
  SupplyAirTemperature,                   !- Zone Cooling Design Supply Air Temperature Input Method
  14,                                     !- Zone Cooling Design Supply Air Temperature {C}
  11.11,                                  !- Zone Cooling Design Supply Air Temperature Difference {deltaC}
  SupplyAirTemperature,                   !- Zone Heating Design Supply Air Temperature Input Method
  40,                                     !- Zone Heating Design Supply Air Temperature {C}
  11.11,                                  !- Zone Heating Design Supply Air Temperature Difference {deltaC}
  0.0085,                                 !- Zone Cooling Design Supply Air Humidity Ratio {kg-H2O/kg-air}
  0.008,                                  !- Zone Heating Design Supply Air Humidity Ratio {kg-H2O/kg-air}
  ,                                       !- Zone Heating Sizing Factor
  ,                                       !- Zone Cooling Sizing Factor
  DesignDay,                              !- Cooling Design Air Flow Method
  ,                                       !- Cooling Design Air Flow Rate {m3/s}
  ,                                       !- Cooling Minimum Air Flow per Zone Floor Area {m3/s-m2}
  ,                                       !- Cooling Minimum Air Flow {m3/s}
  ,                                       !- Cooling Minimum Air Flow Fraction
  DesignDay,                              !- Heating Design Air Flow Method
  ,                                       !- Heating Design Air Flow Rate {m3/s}
  ,                                       !- Heating Maximum Air Flow per Zone Floor Area {m3/s-m2}
  ,                                       !- Heating Maximum Air Flow {m3/s}
  ,                                       !- Heating Maximum Air Flow Fraction
  No,                                     !- Account for Dedicated Outdoor Air System
  NeutralSupplyAir,                       !- Dedicated Outdoor Air System Control Strategy
  autosize,                               !- Dedicated Outdoor Air Low Setpoint Temperature for Design {C}
  autosize,                               !- Dedicated Outdoor Air High Setpoint Temperature for Design {C}
  Sensible Load Only No Latent Load,      !- Zone Load Sizing Method
  HumidityRatioDifference,                !- Zone Latent Cooling Design Supply Air Humidity Ratio Input Method
  ,                                       !- Zone Dehumidification Design Supply Air Humidity Ratio {kgWater/kgDryAir}
  0.005,                                  !- Zone Cooling Design Supply Air Humidity Ratio Difference {kgWater/kgDryAir}
  HumidityRatioDifference,                !- Zone Latent Heating Design Supply Air Humidity Ratio Input Method
  ,                                       !- Zone Humidification Design Supply Air Humidity Ratio {kgWater/kgDryAir}
  0.005,                                  !- Zone Humidification Design Supply Air Humidity Ratio Difference {kgWater/kgDryAir}
  ,                                       !- Zone Humidistat Dehumidification Set Point Schedule Name
  ,                                       !- Zone Humidistat Humidification Set Point Schedule Name
  ,                                       !- Design Zone Air Distribution Effectiveness in Cooling Mode
  ,                                       !- Design Zone Air Distribution Effectiveness in Heating Mode
  ,                                       !- Design Zone Secondary Recirculation Fraction {dimensionless}
  ,                                       !- Design Minimum Zone Ventilation Efficiency {dimensionless}
  Coincident;                             !- Sizing Option

OS:ZoneHVAC:EquipmentList,
  {ce72c169-b821-4e45-9bfb-0856e56131fd}, !- Handle
  Zone HVAC Equipment List 2,             !- Name
  {094e261d-3d5b-43b0-ab6c-b97409c0bba4}; !- Thermal Zone

OS:AdditionalProperties,
  {7dc8edc5-8d73-4687-a873-f0f000106fcc}, !- Handle
  {094e261d-3d5b-43b0-ab6c-b97409c0bba4}, !- Object Name
  ObjectType,                             !- Feature Name 1
  String,                                 !- Feature Data Type 1
  attic - vented;                         !- Feature Value 1

OS:Space,
  {d4ebb153-51ed-465e-a812-ff09cbd44eba}, !- Handle
  attic - vented 1,                       !- Name
  ,                                       !- Space Type Name
  ,                                       !- Default Construction Set Name
  ,                                       !- Default Schedule Set Name
  ,                                       !- Direction of Relative North {deg}
  ,                                       !- X Origin {m}
  ,                                       !- Y Origin {m}
  ,                                       !- Z Origin {m}
  ,                                       !- Building Story Name
  {094e261d-3d5b-43b0-ab6c-b97409c0bba4}, !- Thermal Zone Name
  ,                                       !- Part of Total Floor Area
  ,                                       !- Design Specification Outdoor Air Object Name
  ,                                       !- Building Unit Name
  356.390921899745;                       !- Volume {m3}

OS:Material,
  {d4e0e6f3-e928-4b46-873e-907a43207b6f}, !- Handle
  asphalt or fiberglass shingles,         !- Name