
OS:Version,
  {51833a02-f3f3-444a-a970-2eeee782b0d2}, !- Handle
  3.10.0;                                 !- Version Identifier

OS:SimulationControl,
  {9e4597f0-de0c-479c-8501-685da50b308c}, !- Handle
  ,                                       !- Do Zone Sizing Calculation
  ,                                       !- Do System Sizing Calculation
  ,                                       !- Do Plant Sizing Calculation
  No;                                     !- Run Simulation for Sizing Periods

OS:Timestep,
  {079dd8ed-84cd-4835-b22d-ca845840fee4}, !- Handle
  1;                                      !- Number of Timesteps per Hour

OS:ShadowCalculation,
  {5477813b-ff6e-41d4-a98a-7f42b87a4231}, !- Handle
  PolygonClipping,                        !- Shading Calculation Method
  ,                                       !- Shading Calculation Update Frequency Method
  20,                                     !- Shading Calculation Update Frequency
  200,                                    !- Maximum Figures in Shadow Overlap Calculations
  ,                                       !- Polygon Clipping Algorithm
  512,                                    !- Pixel Counting Resolution
  ,                                       !- Sky Diffuse Modeling Algorithm
  No,                                     !- Output External Shading Calculation Results
  No,                                     !- Disable Self-Shading Within Shading Zone Groups
  No;                                     !- Disable Self-Shading From Shading Zone Groups to Other Zones

OS:SurfaceConvectionAlgorithm:Outside,
  {bc76c42a-be8b-4828-be09-a5a0711ec688}, !- Handle
  DOE-2;                                  !- Algorithm

OS:SurfaceConvectionAlgorithm:Inside,
  {e73fcee4-b5f3-4a41-925b-6d1af1e024ce}, !- Handle
  TARP;                                   !- Algorithm

OS:ZoneCapacitanceMultiplier:ResearchSpecial,
  {b7800d5c-bfd1-4902-8b74-d2e0a20beef5}, !- Handle
  7,                                      !- Temperature Capacity Multiplier
  15,                                     !- Humidity Capacity Multiplier
  ;                                       !- Carbon Dioxide Capacity Multiplier

OS:ConvergenceLimits,
  {86caac51-bb3e-4cf3-afa2-a84d8dd0d85e}, !- Handle
  0;                                      !- Minimum System Timestep {minutes}

OS:RunPeriod,
  {e417f3a5-56f6-41f1-abdd-a46b15516759}, !- Handle
  Run Period 1,                           !- Name
  1,                                      !- Begin Month
  1,                                      !- Begin Day of Month
  12,                                     !- End Month
  31,                                     !- End Day of Month
  ,                                       !- Use Weather File Holidays and Special Days
  ,                                       !- Use Weather File Daylight Saving Period
  ,                                       !- Apply Weekend Holiday Rule
  ,                                       !- Use Weather File Rain Indicators
  ,                                       !- Use Weather File Snow Indicators
  ;                                       !- Number of Times Runperiod to be Repeated

OS:PerformancePrecisionTradeoffs,
  {f0d66837-5b56-4dbe-9354-80def00ce527}, !- Handle
  ,                                       !- Use Coil Direct Solutions
  CarrollMRT;                             !- Zone Radiant Exchange Algorithm

OS:WeatherFile,
  {a205edfa-4cc4-495b-a372-5413d01e4b60}, !- Handle
  Buffalo Niagara Intl Ap,                !- City
  NY,                                     !- State Province Region
  USA,                                    !- Country
  TMY3,                                   !- Data Source
  725280,                                 !- WMO Number
  42.93,                                  !- Latitude {deg}
  -78.73,                                 !- Longitude {deg}
  -5,                                     !- Time Zone {hr}
  215,                                    !- Elevation {m}
  /Users/nmoore/github/urbanopt-example-geojson-project/example_project/weather/USA_NY_Buffalo-Greater.Buffalo.Intl.AP.725280_TMY3.epw, !- Url
  6B50E0FF,                               !- Checksum
  ,                                       !- Start Date Actual Year
  Sunday;                                 !- Start Day of Week

OS:YearDescription,
  {891834a4-2a30-487f-a548-aa674ae8b00f}, !- Handle
  2007,                                   !- Calendar Year
  ,                                       !- Day of Week for Start Day
  ;                                       !- Is Leap Year

OS:Site,
  {517d274e-7af5-4cf5-ba38-ab2cb0d10a26}, !- Handle
  Buffalo Niagara Intl Ap_NY,             !- Name
  42.93,                                  !- Latitude {deg}
  -78.73,                                 !- Longitude {deg}
  -5,                                     !- Time Zone {hr}
  215,                                    !- Elevation {m}
  Suburbs,                                !- Terrain
  Yes;                                    !- Keep Site Location Information

OS:RunPeriodControl:DaylightSavingTime,
  {e2d220ec-b149-423f-9ae9-607c5f7ccfb6}, !- Handle
  Mar 12,                                 !- Start Date
  Nov 5;                                  !- End Date

OS:Site:GroundTemperature:Shallow,
  {b1f0205e-b09e-4a18-85fa-4fbebdd276d4}, !- Handle
  4.30207395723828,                       !- January Surface Ground Temperature {C}
  2.29327249652502,                       !- February Surface Ground Temperature {C}
  2.13240047156047,                       !- March Surface Ground Temperature {C}
  3.08567940719286,                       !- April Surface Ground Temperature {C}
  6.91256312497526,                       !- May Surface Ground Temperature {C}
  10.7216195949507,                       !- June Surface Ground Temperature {C}
  14.0238679822574,                       !- July Surface Ground Temperature {C}
  16.1157611184724,                       !- August Surface Ground Temperature {C}
  16.2934789303462,                       !- September Surface Ground Temperature {C}
  14.5920754632847,                       !- October Surface Ground Temperature {C}
  11.374036348653,                        !- November Surface Ground Temperature {C}
  7.68182621661674;                       !- December Surface Ground Temperature {C}

OS:ThermalZone,
  {f0f5c8ff-3387-4df0-a465-cf58479113d7}, !- Handle
  conditioned space,                      !- Name
  1,                                      !- Multiplier
  ,                                       !- Ceiling Height {m}
  692.06373070848,                        !- Volume {m3}
  ,                                       !- Floor Area {m2}
  ,                                       !- Zone Inside Convection Algorithm
  ,                                       !- Zone Outside Convection Algorithm
  ,                                       !- Zone Conditioning Equipment List Name
  {6e62a0b1-73b2-4f7a-907a-a27b22e2c60a}, !- Zone Air Inlet Port List
  {ff5b0ae2-e7f4-4d1d-95c8-41df4ad705af}, !- Zone Air Exhaust Port List
  {18566e9e-50ad-4052-a53b-960c07d66a4c}, !- Zone Air Node Name
  {da39e156-3389-41ba-bf62-45bdc0fc296e}, !- Zone Return Air Port List
  ,                                       !- Primary Daylighting Control Name
  ,                                       !- Fraction of Zone Controlled by Primary Daylighting Control
  ,                                       !- Secondary Daylighting Control Name
  ,                                       !- Fraction of Zone Controlled by Secondary Daylighting Control
  ,                                       !- Illuminance Map Name
  ,                                       !- Group Rendering Name
  {eac728d2-f042-44be-9db9-54410985628a}, !- Thermostat Name
  No;                                     !- Use Ideal Air Loads

OS:Node,
  {67cee058-028a-4dbe-8975-45444c04f7bc}, !- Handle
  Node 1,                                 !- Name
  {18566e9e-50ad-4052-a53b-960c07d66a4c}, !- Inlet Port
  ;                                       !- Outlet Port

OS:Connection,
  {18566e9e-50ad-4052-a53b-960c07d66a4c}, !- Handle
  {f0f5c8ff-3387-4df0-a465-cf58479113d7}, !- Source Object
  11,                                     !- Outlet Port
  {67cee058-028a-4dbe-8975-45444c04f7bc}, !- Target Object
  2;                                      !- Inlet Port

OS:PortList,
  {6e62a0b1-73b2-4f7a-907a-a27b22e2c60a}, !- Handle
  {f0f5c8ff-3387-4df0-a465-cf58479113d7}; !- HVAC Component

OS:PortList,
  {ff5b0ae2-e7f4-4d1d-95c8-41df4ad705af}, !- Handle
  {f0f5c8ff-3387-4df0-a465-cf58479113d7}; !- HVAC Component

OS:PortList,
  {da39e156-3389-41ba-bf62-45bdc0fc296e}, !- Handle
  {f0f5c8ff-3387-4df0-a465-cf58479113d7}; !- HVAC Component

OS:Sizing:Zone,
  {c555f3aa-870e-4763-bd78-63bc2f3f736c}, !- Handle
  {f0f5c8ff-3387-4df0-a465-cf58479113d7}, !- Zone or ZoneList Name
  SupplyAirTemperature,                   !- Zone Cooling Design Supply Air Temperature Input Method
  14,                                     !- Zone Cooling Design Supply Air Temperature {C}
  11.11,                                  !- Zone Cooling Design Supply Air Temperature Difference {deltaC}
  SupplyAirTemperature,                   !- Zone Heating Design Supply Air Temperature Input Method
  40,                                     !- Zone Heating Design Supply Air Temperature {C}
  11.11,                                  !- Zone Heating Design Supply Air Temperature Difference {deltaC}
  0.0085,                                 !- Zone Cooling Design Supply Air Humidity Ratio {kg-H2O/kg-air}
  0.008,                                  !- Zone Heating Design Supply Air Humidity Ratio {kg-H2O/kg-air}
  ,                                       !- Zone Heating Sizing Factor
  ,                                       !- Zone Cooling Sizing Factor
  DesignDay,                              !- Cooling Design Air Flow Method
  ,                                       !- Cooling Design Air Flow Rate {m3/s}
  ,                                       !- Cooling Minimum Air Flow per Zone Floor Area {m3/s-m2}
  ,                                       !- Cooling Minimum Air Flow {m3/s}
  ,                                       !- Cooling Minimum Air Flow Fraction
  DesignDay,                              !- Heating Design Air Flow Method
  ,                                       !- Heating Design Air Flow Rate {m3/s}
  ,                                       !- Heating Maximum Air Flow per Zone Floor Area {m3/s-m2}
  ,                                       !- Heating Maximum Air Flow {m3/s}
  ,                                       !- Heating Maximum Air Flow Fraction
  No,                                     !- Account for Dedicated Outdoor Air System
  NeutralSupplyAir,                       !- Dedicated Outdoor Air System Control Strategy
  autosize,                               !- Dedicated Outdoor Air Low Setpoint Temperature for Design {C}
  autosize,                               !- Dedicated Outdoor Air High Setpoint Temperature for Design {C}
  Sensible Load Only No Latent Load,      !- Zone Load Sizing Method
  HumidityRatioDifference,                !- Zone Latent Cooling Design Supply Air Humidity Ratio Input Method
  ,                                       !- Zone Dehumidification Design Supply Air Humidity Ratio {kgWater/kgDryAir}
  0.005,                                  !- Zone Cooling Design Supply Air Humidity Ratio Difference {kgWater/kgDryAir}
  HumidityRatioDifference,                !- Zone Latent Heating Design Supply Air Humidity Ratio Input Method
  ,                                       !- Zone Humidification Design Supply Air Humidity Ratio {kgWater/kgDryAir}
  0.005,                                  !- Zone Humidification Design Supply Air Humidity Ratio Difference {kgWater/kgDryAir}
  ,                                       !- Zone Humidistat Dehumidification Set Point Schedule Name
  ,                                       !- Zone Humidistat Humidification Set Point Schedule Name
  ,                                       !- Design Zone Air Distribution Effectiveness in Cooling Mode
  ,                                       !- Design Zone Air Distribution Effectiveness in Heating Mode
  ,                                       !- Design Zone Secondary Recirculation Fraction {dimensionless}
  ,                                       !- Design Minimum Zone Ventilation Efficiency {dimensionless}
  Coincident;                             !- Sizing Option

OS:ZoneHVAC:EquipmentList,
  {74acaefc-38e0-4067-8a63-aa4d82ecd05f}, !- Handle
  Zone HVAC Equipment List 1,             !- Name
  {f0f5c8ff-3387-4df0-a465-cf58479113d7}, !- Thermal Zone
  ,                                       !- Load Distribution Scheme
  {ffe3f3a7-d3b6-43c5-8d27-a239800e9fd8}, !- Zone Equipment 1
  1,                                      !- Zone Equipment Cooling Sequence 1
  1,                                      !- Zone Equipment Heating or No-Load Sequence 1
  {c055d45a-8112-4302-b922-36283c222e49}, !- Zone Equipment Sequential Cooling Fraction Schedule Name 1
  {449c3043-7a4f-46c1-a5a4-f0728de9f064}; !- Zone Equipment Sequential Heating Fraction Schedule Name 1

OS:AdditionalProperties,
  {d36575ac-3fa1-42c2-b190-a5b0f851fd99}, !- Handle
  {f0f5c8ff-3387-4df0-a465-cf58479113d7}, !- Object Name
  ObjectType,                             !- Feature Name 1
  String,                                 !- Feature Data Type 1
  conditioned space;                      !- Feature Value 1

OS:Space,
  {42c5d55c-4afd-4468-a66f-d12952af811b}, !- Handle
  conditioned space 1,                    !- Name
  ,                                       !- Space Type Name
  ,                                       !- Default Construction Set Name
  ,                                       !- Default Schedule Set Name
  ,                                       !- Direction of Relative North {deg}
  ,                                       !- X Origin {m}
  ,                                       !- Y Origin {m}
  ,                                       !- Z Origin {m}
  ,                                       !- Building Story Name
  {f0f5c8ff-3387-4df0-a465-cf58479113d7}, !- Thermal Zone Name
  ,                                       !- Part of Total Floor Area
  ,                                       !- Design Specification Outdoor Air Object Name
  ,                                       !- Building Unit Name
  692.06373070848;                        !- Volume {m3}

OS:Schedule:Ruleset,
  {49656c51-30ba-424e-a558-7f694c5fefec}, !- Handle
  heating setpoint,                       !- Name
  {5d0abc82-fb1a-4fdc-a79b-ea58f3e6b1a6}, !- Schedule Type Limits Name
  {89822cab-1958-45ef-b8ab-36830859cfe8}; !- Default Day Schedule Name

OS:Schedule:Day,
  {89822cab-1958-45ef-b8ab-36830859cfe8}, !- Handle
  heating setpoint default day,           !- Name
  {5d0abc82-fb1a-4fdc-a79b-ea58f3e6b1a6}, !- Schedule Type Limits Name
  ,                                       !- Interpolate to Timestep
  24,                                     !- Hour 1
  0,                                      !- Minute 1
  0;                                      !- Value Until Time 1

OS:Schedule:Rule,
  {fb8f5595-092a-48c7-8d73-34af640bcace}, !- Handle
  heating setpoint allday rule,           !- Name
  {49656c51-30ba-424e-a558-7f694c5fefec}, !- Schedule Ruleset Name
  0,                                      !- Rule Order
  {6974a44b-87e0-4abc-b961-65eb4a3f7478}, !- Day Schedule Name
  Yes,                                    !- Apply Sunday
  Yes,                                    !- Apply Monday
  Yes,                                    !- Apply Tuesday
  Yes,                                    !- Apply Wednesday
  Yes,                                    !- Apply Thursday
  Yes,                                    !- Apply Friday
  Yes,                                    !- Apply Saturday
  DateRange,                              !- Date Specification Type
  1,                                      !- Start Month
  1,                                      !- Start Day
  12,                                     !- End Month
  31;                                     !- End Day

OS:Schedule:Day,
  {6974a44b-87e0-4abc-b961-65eb4a3f7478}, !- Handle
  heating setpoint day,                   !- Name
  {5d0abc82-fb1a-4fdc-a79b-ea58f3e6b1a6}, !- Schedule Type Limits Name
  ,                                       !- Interpolate to Timestep
  24,                                     !- Hour 1
  0,                                      !- Minute 1
  20;                                     !- Value Until Time 1

OS:Schedule:Ruleset,
  {0de0ef26-46d8-43c4-81d9-8b8dc100f5aa}, !- Handle
  cooling setpoint,                       !- Name
  {5d0abc82-fb1a-4fdc-a79b-ea58f3e6b1a6}, !- Schedule Type Limits Name
  {35174b7a-96ad-455a-acac-db3174962bf5}; !- Default Day Schedule Name

OS:Schedule:Day,
  {35174b7a-96ad-455a-acac-db3174962bf5}, !- Handle
  cooling setpoint default day,           !- Name
  {5d0abc82-fb1a-4fdc-a79b-ea58f3e6b1a6}, !- Schedule Type Limits Name
  ,                                       !- Interpolate to Timestep
  24,                                     !- Hour 1
  0,                                      !- Minute 1
  0;                                      !- Value Until Time 1

OS:Schedule:Rule,
  {f7ce874f-83e4-4d63-aa15-279f55bb1d02}, !- Handle
  cooling setpoint allday rule,           !- Name
  {0de0ef26-46d8-43c4-81d9-8b8dc100f5aa}, !- Schedule Ruleset Name
  0,                                      !- Rule Order
  {b28aec13-9aaa-44f4-927f-ca3208cd4460}, !- Day Schedule Name
  Yes,                                    !- Apply Sunday
  Yes,                                    !- Apply Monday
  Yes,                                    !- Apply Tuesday
  Yes,                                    !- Apply Wednesday
  Yes,                                    !- Apply Thursday
  Yes,                                    !- Apply Friday
  Yes,                                    !- Apply Saturday
  DateRange,                              !- Date Specification Type
  1,                                      !- Start Month
  1,                                      !- Start Day
  12,                                     !- End Month
  31;                                     !- End Day

OS:Schedule:Day,
  {b28aec13-9aaa-44f4-927f-ca3208cd4460}, !- Handle
  cooling setpoint day,                   !- Name
  {5d0abc82-fb1a-4fdc-a79b-ea58f3e6b1a6}, !- Schedule Type Limits Name
  ,                                       !- Interpolate to Timestep
  24,                                     !- Hour 1
  0,                                      !- Minute 1
  25.5555555555556;                       !- Value Until Time 1

OS:ThermostatSetpoint:DualSetpoint,
  {eac728d2-f042-44be-9db9-54410985628a}, !- Handle
  conditioned space temperature setpoint, !- Name
  {49656c51-30ba-424e-a558-7f694c5fefec}, !- Heating Setpoint Temperature Schedule Name
  {0de0ef26-46d8-43c4-81d9-8b8dc100f5aa}, !- Cooling Setpoint Temperature Schedule Name
  0;                                      !- Temperature Difference Between Cutout And Setpoint {deltaC}

OS:ScheduleTypeLimits,
  {5d0abc82-fb1a-4fdc-a79b-ea58f3e6b1a6}, !- Handle
  Temperature,                            !- Name
  ,                                       !- Lower Limit Value
  ,                                       !- Upper Limit Value
  Continuous,                             !- Numeric Type
  Temperature;                            !- Unit Type

OS:Surface,
  {e6ef4a3a-0b6b-40d4-86c4-cf081eea2acb}, !- Handle
  Roof1,                                  !- Name
  RoofCeiling,                            !- Surface Type
  {9de019d2-0105-4ef3-887b-ecebf9fce9be}, !- Construction Name
  {acdbf47f-f26f-46b3-a2f6-3d5bfc947227}, !- Space Name
  Outdoors,                               !- Outside Boundary Condition
  ,                                       !- Outside Boundary Condition Object
  SunExposed,                             !- Sun Exposure
  WindExposed,                            !- Wind Exposure
  ,                                       !- View Factor to Ground
  ,                                       !- Number of Vertices
  -26.9347048849634, 58.0557891618865, 2.4384, !- X,Y,Z Vertex 1 {m}
  -26.9347048849634, 46.7895631136661, 8.0715130241102, !- X,Y,Z Vertex 2 {m}
  -14.3386812381136, 46.7895631136661, 8.0715130241102, !- X,Y,Z Vertex 3 {m}
  -14.3386812381136, 58.0557891618865, 2.4384; !- X,Y,Z Vertex 4 {m}

OS:AdditionalProperties,
  {540e8a29-6ecd-4557-97ab-a1210579f2e7}, !- Handle
  {e6ef4a3a-0b6b-40d4-86c4-cf081eea2acb}, !- Object Name
  Length,                                 !- Feature Name 1
  Double,                                 !- Feature Data Type 1
  41.325536899113608,                     !- Feature Value 1
  Width,                                  !- Feature Name 2
  Double,                                 !- Feature Data Type 2
  41.325536899113601,                     !- Feature Value 2
  Azimuth,                                !- Feature Name 3
  Integer,                                !- Feature Data Type 3
  0,                                      !- Feature Value 3
  Tilt,                                   !- Feature Name 4
  Double,                                 !- Feature Data Type 4
  0.5,                                    !- Feature Value 4
  SurfaceType,                            !- Feature Name 5
  String,                                 !- Feature Data Type 5
  Roof;                                   !- Feature Value 5

OS:ThermalZone,
  {bb207827-2f3e-42f1-89b9-a69cb0470cc5}, !- Handle
  attic - vented,                         !- Name
  1,                                      !- Multiplier
  ,                                       !- Ceiling Height {m}
  356.390921899745,                       !- Volume {m3}
  ,                                       !- Floor Area {m2}
  ,                                       !- Zone Inside Convection Algorithm
  ,                                       !- Zone Outside Convection Algorithm
  ,                                       !- Zone Conditioning Equipment List Name
  {e7147ef4-9786-48be-85a3-8e46f653b368}, !- Zone Air Inlet Port List
  {71c4507c-d643-4953-8c82-ce0ff2ddeb15}, !- Zone Air Exhaust Port List
  {8ecacd6a-2db1-4967-ab5f-42848967d8f6}, !- Zone Air Node Name
  {8ec5930d-cb75-48a9-8332-cb1cdd0f1dd4}, !- Zone Return Air Port List
  ,                                       !- Primary Daylighting Control Name
  ,                                       !- Fraction of Zone Controlled by Primary Daylighting Control
  ,                                       !- Secondary Daylighting Control Name
  ,                                       !- Fraction of Zone Controlled by Secondary Daylighting Control
  ,                                       !- Illuminance Map Name
  ,                                       !- Group Rendering Name
  ,                                       !- Thermostat Name
  No;                                     !- Use Ideal Air Loads

OS:Node,
  {622ae3e8-67b1-41d4-a5f6-3a0483cdb490}, !- Handle
  Node 2,                                 !- Name
  {8ecacd6a-2db1-4967-ab5f-42848967d8f6}, !- Inlet Port
  ;                                       !- Outlet Port

OS:Connection,
  {8ecacd6a-2db1-4967-ab5f-42848967d8f6}, !- Handle
  {bb207827-2f3e-42f1-89b9-a69cb0470cc5}, !- Source Object
  11,                                     !- Outlet Port
  {622ae3e8-67b1-41d4-a5f6-3a0483cdb490}, !- Target Object
  2;                                      !- Inlet Port

OS:PortList,
  {e7147ef4-9786-48be-85a3-8e46f653b368}, !- Handle
  {bb207827-2f3e-42f1-89b9-a69cb0470cc5}; !- HVAC Component

OS:PortList,
  {71c4507c-d643-4953-8c82-ce0ff2ddeb15}, !- Handle
  {bb207827-2f3e-42f1-89b9-a69cb0470cc5}; !- HVAC Component

OS:PortList,
  {8ec5930d-cb75-48a9-8332-cb1cdd0f1dd4}, !- Handle
  {bb207827-2f3e-42f1-89b9-a69cb0470cc5}; !- HVAC Component

OS:Sizing:Zone,
  {36d6915a-c943-450b-9c98-ac8dc0ebcf44}, !- Handle
  {bb207827-2f3e-42f1-89b9-a69cb0470cc5}, !- Zone or ZoneList Name
  SupplyAirTemperature,                   !- Zone Cooling Design Supply Air Temperature Input Method
  14,                                     !- Zone Cooling Design Supply Air Temperature {C}
  11.11,                                  !- Zone Cooling Design Supply Air Temperature Difference {deltaC}
  SupplyAirTemperature,                   !- Zone Heating Design Supply Air Temperature Input Method
  40,                                     !- Zone Heating Design Supply Air Temperature {C}
  11.11,                                  !- Zone Heating Design Supply Air Temperature Difference {deltaC}
  0.0085,                                 !- Zone Cooling Design Supply Air Humidity Ratio {kg-H2O/kg-air}
  0.008,                                  !- Zone Heating Design Supply Air Humidity Ratio {kg-H2O/kg-air}
  ,                                       !- Zone Heating Sizing Factor
  ,                                       !- Zone Cooling Sizing Factor
  DesignDay,                              !- Cooling Design Air Flow Method
  ,                                       !- Cooling Design Air Flow Rate {m3/s}
  ,                                       !- Cooling Minimum Air Flow per Zone Floor Area {m3/s-m2}
  ,                                       !- Cooling Minimum Air Flow {m3/s}
  ,                                       !- Cooling Minimum Air Flow Fraction
  DesignDay,                              !- Heating Design Air Flow Method
  ,                                       !- Heating Design Air Flow Rate {m3/s}
  ,                                       !- Heating Maximum Air Flow per Zone Floor Area {m3/s-m2}
  ,                                       !- Heating Maximum Air Flow {m3/s}
  ,                                       !- Heating Maximum Air Flow Fraction
  No,                                     !- Account for Dedicated Outdoor Air System
  NeutralSupplyAir,                       !- Dedicated Outdoor Air System Control Strategy
  autosize,                               !- Dedicated Outdoor Air Low Setpoint Temperature for Design {C}
  autosize,                               !- Dedicated Outdoor Air High Setpoint Temperature for Design {C}
  Sensible Load Only No Latent Load,      !- Zone Load Sizing Method
  HumidityRatioDifference,                !- Zone Latent Cooling Design Supply Air Humidity Ratio Input Method
  ,                                       !- Zone Dehumidification Design Supply Air Humidity Ratio {kgWater/kgDryAir}
  0.005,                                  !- Zone Cooling Design Supply Air Humidity Ratio Difference {kgWater/kgDryAir}
  HumidityRatioDifference,                !- Zone Latent Heating Design Supply Air Humidity Ratio Input Method
  ,                                       !- Zone Humidification Design Supply Air Humidity Ratio {kgWater/kgDryAir}
  0.005,                                  !- Zone Humidification Design Supply Air Humidity Ratio Difference {kgWater/kgDryAir}
  ,                                       !- Zone Humidistat Dehumidification Set Point Schedule Name
  ,                                       !- Zone Humidistat Humidification Set Point Schedule Name
  ,                                       !- Design Zone Air Distribution Effectiveness in Cooling Mode
  ,                                       !- Design Zone Air Distribution Effectiveness in Heating Mode
  ,                                       !- Design Zone Secondary Recirculation Fraction {dimensionless}
  ,                                       !- Design Minimum Zone Ventilation Efficiency {dimensionless}
  Coincident;                             !- Sizing Option

OS:ZoneHVAC:EquipmentList,
  {1bae9f27-94b7-4fe2-b378-319890a23381}, !- Handle
  Zone HVAC Equipment List 2,             !- Name
  {bb207827-2f3e-42f1-89b9-a69cb0470cc5}; !- Thermal Zone

OS:AdditionalProperties,
  {19a531ad-37ab-46f0-99a9-33c343cb0e89}, !- Handle
  {bb207827-2f3e-42f1-89b9-a69cb0470cc5}, !- Object Name
  ObjectType,                             !- Feature Name 1
  String,                                 !- Feature Data Type 1
  attic - vented;                         !- Feature Value 1

OS:Space,
  {acdbf47f-f26f-46b3-a2f6-3d5bfc947227}, !- Handle
  attic - vented 1,                       !- Name
  ,                                       !- Space Type Name
  ,                                       !- Default Construction Set Name
  ,                                       !- Default Schedule Set Name
  ,                                       !- Direction of Relative North {deg}
  ,                                       !- X Origin {m}
  ,                                       !- Y Origin {m}
  ,                                       !- Z Origin {m}
  ,                                       !- Building Story Name
  {bb207827-2f3e-42f1-89b9-a69cb0470cc5}, !- Thermal Zone Name
  ,                                       !- Part of Total Floor Area
  ,                                       !- Design Specification Outdoor Air Object Name
  ,                                       !- Building Unit Name
  356.390921899745;                       !- Volume {m3}

OS:Material,
  {756a6a3f-3b31-4f55-8606-3a7c58c05e3d}, !- Handle
  asphalt or fiberglass shingles,         !- Name
  Rough,                                  !- Roughness
  0.00635,                                !- Thickness {m}
  0.162714,                               !- Conductivity {W/m-K}
  1121.4,                                 !- Density {kg/m3}
  1465.45,                                !- Specific Heat {J/kg-K}
  0.9,                                    !- Thermal Absorptance
  0.85,                                   !- Solar Absorptance
  0.85;                                   !- Visible Absorptance

OS:Material,
  {43b0bc8a-ffe0-4cc8-99cc-fdc5066d63f9}, !- Handle