
OS:Version,
  {6cdda8fa-b3bb-41c5-ba74-ecc27e0bf211}, !- Handle
  3.9.0;                                  !- Version Identifier

OS:SimulationControl,
  {663e1bf6-9be5-4ee4-b1a5-81967ce1e7f7}, !- Handle
  ,                                       !- Do Zone Sizing Calculation
  ,                                       !- Do System Sizing Calculation
  ,                                       !- Do Plant Sizing Calculation
  No;                                     !- Run Simulation for Sizing Periods

OS:Timestep,
  {8c6724c1-ddeb-4a42-adab-1319152f8ddd}, !- Handle
  1;                                      !- Number of Timesteps per Hour

OS:ShadowCalculation,
  {11f9cbf9-404d-4b49-9c19-ba9f37880d67}, !- Handle
  PolygonClipping,                        !- Shading Calculation Method
  ,                                       !- Shading Calculation Update Frequency Method
  20,                                     !- Shading Calculation Update Frequency
  200,                                    !- Maximum Figures in Shadow Overlap Calculations
  ,                                       !- Polygon Clipping Algorithm
  512,                                    !- Pixel Counting Resolution
  ,                                       !- Sky Diffuse Modeling Algorithm
  No,                                     !- Output External Shading Calculation Results
  No,                                     !- Disable Self-Shading Within Shading Zone Groups
  No;                                     !- Disable Self-Shading From Shading Zone Groups to Other Zones

OS:SurfaceConvectionAlgorithm:Outside,
  {66763961-7fe5-4b68-9d29-c7c1c0d93dd3}, !- Handle
  DOE-2;                                  !- Algorithm

OS:SurfaceConvectionAlgorithm:Inside,
  {629c1aa0-823d-4ae2-983d-ccc79aa2d615}, !- Handle
  TARP;                                   !- Algorithm

OS:ZoneCapacitanceMultiplier:ResearchSpecial,
  {530fa63e-012d-4418-b93e-4ab03aedd111}, !- Handle
  7,                                      !- Temperature Capacity Multiplier
  15,                                     !- Humidity Capacity Multiplier
  ;                                       !- Carbon Dioxide Capacity Multiplier

OS:ConvergenceLimits,
  {215d68d3-e170-4723-a2a7-58ddeb3436af}, !- Handle
  0;                                      !- Minimum System Timestep {minutes}

OS:RunPeriod,
  {cd52a334-5f1e-4b87-b1da-e2ed6ccb1fa7}, !- Handle
  Run Period 1,                           !- Name
  1,                                      !- Begin Month
  1,                                      !- Begin Day of Month
  12,                                     !- End Month
  31,                                     !- End Day of Month
  ,                                       !- Use Weather File Holidays and Special Days
  ,                                       !- Use Weather File Daylight Saving Period
  ,                                       !- Apply Weekend Holiday Rule
  ,                                       !- Use Weather File Rain Indicators
  ,                                       !- Use Weather File Snow Indicators
  ;                                       !- Number of Times Runperiod to be Repeated

OS:PerformancePrecisionTradeoffs,
  {78935960-421e-4b21-9382-283122d56ca1}, !- Handle
  ,                                       !- Use Coil Direct Solutions
  CarrollMRT;                             !- Zone Radiant Exchange Algorithm

OS:WeatherFile,
  {4fbdd6cd-a1fb-4816-a404-14729558783a}, !- Handle
  Buffalo Niagara Intl Ap,                !- City
  NY,                                     !- State Province Region
  USA,                                    !- Country
  TMY3,                                   !- Data Source
  725280,                                 !- WMO Number
  42.93,                                  !- Latitude {deg}
  -78.73,                                 !- Longitude {deg}
  -5,                                     !- Time Zone {hr}
  215,                                    !- Elevation {m}
  /Users/nmoore/github/urbanopt-example-geojson-project/example_project/weather/USA_NY_Buffalo-Greater.Buffalo.Intl.AP.725280_TMY3.epw, !- Url
  6B50E0FF,                               !- Checksum
  ,                                       !- Start Date Actual Year
  Sunday;                                 !- Start Day of Week

OS:YearDescription,
  {e91e1c0d-d4ae-487a-a56d-70a56b9fc679}, !- Handle
  2007,                                   !- Calendar Year
  ,                                       !- Day of Week for Start Day
  ;                                       !- Is Leap Year

OS:Site,
  {ec2f8f14-673b-4942-9565-d8eaecd0dda7}, !- Handle
  Buffalo Niagara Intl Ap_NY,             !- Name
  42.93,                                  !- Latitude {deg}
  -78.73,                                 !- Longitude {deg}
  -5,                                     !- Time Zone {hr}
  215,                                    !- Elevation {m}
  Suburbs,                                !- Terrain
  Yes;                                    !- Keep Site Location Information

OS:RunPeriodControl:DaylightSavingTime,
  {6ec9d0cb-4d31-43cb-943b-0317b432da72}, !- Handle
  Mar 12,                                 !- Start Date
  Nov 5;                                  !- End Date

OS:Site:GroundTemperature:Shallow,
  {05252fea-a3f9-47b8-a8d3-dbe4db3ca820}, !- Handle
  4.30207395723828,                       !- January Surface Ground Temperature {C}
  2.29327249652502,                       !- February Surface Ground Temperature {C}
  2.13240047156047,                       !- March Surface Ground Temperature {C}
  3.08567940719286,                       !- April Surface Ground Temperature {C}
  6.91256312497526,                       !- May Surface Ground Temperature {C}
  10.7216195949507,                       !- June Surface Ground Temperature {C}
  14.0238679822574,                       !- July Surface Ground Temperature {C}
  16.1157611184724,                       !- August Surface Ground Temperature {C}
  16.2934789303462,                       !- September Surface Ground Temperature {C}
  14.5920754632847,                       !- October Surface Ground Temperature {C}
  11.374036348653,                        !- November Surface Ground Temperature {C}
  7.68182621661674;                       !- December Surface Ground Temperature {C}

OS:ThermalZone,
  {54f78b7a-d3c8-487b-b832-9aec7886a353}, !- Handle
  conditioned space,                      !- Name
  1,                                      !- Multiplier
  ,                                       !- Ceiling Height {m}
  692.06373070848,                        !- Volume {m3}
  ,                                       !- Floor Area {m2}
  ,                                       !- Zone Inside Convection Algorithm
  ,                                       !- Zone Outside Convection Algorithm
  ,                                       !- Zone Conditioning Equipment List Name
  {25229ee8-7e2a-4090-9465-b81bf29afac0}, !- Zone Air Inlet Port List
  {9922273d-6a19-48a3-a5c6-fb9add95c090}, !- Zone Air Exhaust Port List
  {505e78c8-af25-4804-8c78-8be3de903dfd}, !- Zone Air Node Name
  {3948df68-a9d5-4084-aa69-48fc91cc8b28}, !- Zone Return Air Port List
  ,                                       !- Primary Daylighting Control Name
  ,                                       !- Fraction of Zone Controlled by Primary Daylighting Control
  ,                                       !- Secondary Daylighting Control Name
  ,                                       !- Fraction of Zone Controlled by Secondary Daylighting Control
  ,                                       !- Illuminance Map Name
  ,                                       !- Group Rendering Name
  {2d45c5c4-c8bd-483b-80a6-b94e334684e6}, !- Thermostat Name
  No;                                     !- Use Ideal Air Loads

OS:Node,
  {d6f574b7-f06a-4024-9fa4-f4fe3b0833aa}, !- Handle
  Node 1,                                 !- Name
  {505e78c8-af25-4804-8c78-8be3de903dfd}, !- Inlet Port
  ;                                       !- Outlet Port

OS:Connection,
  {505e78c8-af25-4804-8c78-8be3de903dfd}, !- Handle
  {54f78b7a-d3c8-487b-b832-9aec7886a353}, !- Source Object
  11,                                     !- Outlet Port
  {d6f574b7-f06a-4024-9fa4-f4fe3b0833aa}, !- Target Object
  2;                                      !- Inlet Port

OS:PortList,
  {25229ee8-7e2a-4090-9465-b81bf29afac0}, !- Handle
  {54f78b7a-d3c8-487b-b832-9aec7886a353}; !- HVAC Component

OS:PortList,
  {9922273d-6a19-48a3-a5c6-fb9add95c090}, !- Handle
  {54f78b7a-d3c8-487b-b832-9aec7886a353}; !- HVAC Component

OS:PortList,
  {3948df68-a9d5-4084-aa69-48fc91cc8b28}, !- Handle
  {54f78b7a-d3c8-487b-b832-9aec7886a353}; !- HVAC Component

OS:Sizing:Zone,
  {e7e14634-0512-4d34-bf33-e38018a96e72}, !- Handle
  {54f78b7a-d3c8-487b-b832-9aec7886a353}, !- Zone or ZoneList Name
  SupplyAirTemperature,                   !- Zone Cooling Design Supply Air Temperature Input Method
  14,                                     !- Zone Cooling Design Supply Air Temperature {C}
  11.11,                                  !- Zone Cooling Design Supply Air Temperature Difference {deltaC}
  SupplyAirTemperature,                   !- Zone Heating Design Supply Air Temperature Input Method
  40,                                     !- Zone Heating Design Supply Air Temperature {C}
  11.11,                                  !- Zone Heating Design Supply Air Temperature Difference {deltaC}
  0.0085,                                 !- Zone Cooling Design Supply Air Humidity Ratio {kg-H2O/kg-air}
  0.008,                                  !- Zone Heating Design Supply Air Humidity Ratio {kg-H2O/kg-air}
  ,                                       !- Zone Heating Sizing Factor
  ,                                       !- Zone Cooling Sizing Factor
  DesignDay,                              !- Cooling Design Air Flow Method
  ,                                       !- Cooling Design Air Flow Rate {m3/s}
  ,                                       !- Cooling Minimum Air Flow per Zone Floor Area {m3/s-m2}
  ,                                       !- Cooling Minimum Air Flow {m3/s}
  ,                                       !- Cooling Minimum Air Flow Fraction
  DesignDay,                              !- Heating Design Air Flow Method
  ,                                       !- Heating Design Air Flow Rate {m3/s}
  ,                                       !- Heating Maximum Air Flow per Zone Floor Area {m3/s-m2}
  ,                                       !- Heating Maximum Air Flow {m3/s}
  ,                                       !- Heating Maximum Air Flow Fraction
  No,                                     !- Account for Dedicated Outdoor Air System
  NeutralSupplyAir,                       !- Dedicated Outdoor Air System Control Strategy
  autosize,                               !- Dedicated Outdoor Air Low Setpoint Temperature for Design {C}
  autosize,                               !- Dedicated Outdoor Air High Setpoint Temperature for Design {C}
  Sensible Load Only No Latent Load,      !- Zone Load Sizing Method
  HumidityRatioDifference,                !- Zone Latent Cooling Design Supply Air Humidity Ratio Input Method
  ,                                       !- Zone Dehumidification Design Supply Air Humidity Ratio {kgWater/kgDryAir}
  0.005,                                  !- Zone Cooling Design Supply Air Humidity Ratio Difference {kgWater/kgDryAir}
  HumidityRatioDifference,                !- Zone Latent Heating Design Supply Air Humidity Ratio Input Method
  ,                                       !- Zone Humidification Design Supply Air Humidity Ratio {kgWater/kgDryAir}
  0.005,                                  !- Zone Humidification Design Supply Air Humidity Ratio Difference {kgWater/kgDryAir}
  ,                                       !- Zone Humidistat Dehumidification Set Point Schedule Name
  ,                                       !- Zone Humidistat Humidification Set Point Schedule Name
  ,                                       !- Design Zone Air Distribution Effectiveness in Cooling Mode
  ,                                       !- Design Zone Air Distribution Effectiveness in Heating Mode
  ,                                       !- Design Zone Secondary Recirculation Fraction {dimensionless}
  ,                                       !- Design Minimum Zone Ventilation Efficiency {dimensionless}
  Coincident;                             !- Sizing Option

OS:ZoneHVAC:EquipmentList,
  {24b63933-79b5-4daa-b9d7-540f1beac257}, !- Handle
  Zone HVAC Equipment List 1,             !- Name
  {54f78b7a-d3c8-487b-b832-9aec7886a353}, !- Thermal Zone
  ,                                       !- Load Distribution Scheme
  {eb0bc9fb-f0d7-45d4-abc8-f304b3f57c8d}, !- Zone Equipment 1
  1,                                      !- Zone Equipment Cooling Sequence 1
  1,                                      !- Zone Equipment Heating or No-Load Sequence 1
  {eef93f9d-1c54-4a19-b05e-2be21b573176}, !- Zone Equipment Sequential Cooling Fraction Schedule Name 1
  {8740a72a-a518-4f92-b263-6628bf9d56b1}; !- Zone Equipment Sequential Heating Fraction Schedule Name 1

OS:AdditionalProperties,
  {b38ae1f3-873c-438d-86bf-d780222de1aa}, !- Handle
  {54f78b7a-d3c8-487b-b832-9aec7886a353}, !- Object Name
  ObjectType,                             !- Feature Name 1
  String,                                 !- Feature Data Type 1
  conditioned space;                      !- Feature Value 1

OS:Space,
  {00087ac2-d2ad-42c9-8100-31be91055730}, !- Handle
  conditioned space 1,                    !- Name
  ,                                       !- Space Type Name
  ,                                       !- Default Construction Set Name
  ,                                       !- Default Schedule Set Name
  ,                                       !- Direction of Relative North {deg}
  ,                                       !- X Origin {m}
  ,                                       !- Y Origin {m}
  ,                                       !- Z Origin {m}
  ,                                       !- Building Story Name
  {54f78b7a-d3c8-487b-b832-9aec7886a353}, !- Thermal Zone Name
  ,                                       !- Part of Total Floor Area
  ,                                       !- Design Specification Outdoor Air Object Name
  ,                                       !- Building Unit Name
  692.06373070848;                        !- Volume {m3}

OS:Schedule:Ruleset,
  {4d77da10-da24-4404-8faa-551737969c8b}, !- Handle
  heating setpoint,                       !- Name
  {cf2454a7-520b-4970-a656-5d438bf70805}, !- Schedule Type Limits Name
  {bee0cde6-af20-46c8-b374-4e40a59c98fa}; !- Default Day Schedule Name

OS:Schedule:Day,
  {bee0cde6-af20-46c8-b374-4e40a59c98fa}, !- Handle
  heating setpoint default day,           !- Name
  {cf2454a7-520b-4970-a656-5d438bf70805}, !- Schedule Type Limits Name
  ,                                       !- Interpolate to Timestep
  24,                                     !- Hour 1
  0,                                      !- Minute 1
  0;                                      !- Value Until Time 1

OS:Schedule:Rule,
  {1b15afe3-e585-42c2-b0fc-ef22aaad657f}, !- Handle
  heating setpoint allday rule,           !- Name
  {4d77da10-da24-4404-8faa-551737969c8b}, !- Schedule Ruleset Name
  0,                                      !- Rule Order
  {f5b11c81-60af-4a00-ab7d-80d0c9033a23}, !- Day Schedule Name
  Yes,                                    !- Apply Sunday
  Yes,                                    !- Apply Monday
  Yes,                                    !- Apply Tuesday
  Yes,                                    !- Apply Wednesday
  Yes,                                    !- Apply Thursday
  Yes,                                    !- Apply Friday
  Yes,                                    !- Apply Saturday
  DateRange,                              !- Date Specification Type
  1,                                      !- Start Month
  1,                                      !- Start Day
  12,                                     !- End Month
  31;                                     !- End Day

OS:Schedule:Day,
  {f5b11c81-60af-4a00-ab7d-80d0c9033a23}, !- Handle
  heating setpoint day,                   !- Name
  {cf2454a7-520b-4970-a656-5d438bf70805}, !- Schedule Type Limits Name
  ,                                       !- Interpolate to Timestep
  24,                                     !- Hour 1
  0,                                      !- Minute 1
  20;                                     !- Value Until Time 1

OS:Schedule:Ruleset,
  {50037ca2-409f-4c4f-b53d-f6da90bb91f7}, !- Handle
  cooling setpoint,                       !- Name
  {cf2454a7-520b-4970-a656-5d438bf70805}, !- Schedule Type Limits Name
  {52dbb9ed-dc2d-47dd-a64b-c6782c65d15b}; !- Default Day Schedule Name

OS:Schedule:Day,
  {52dbb9ed-dc2d-47dd-a64b-c6782c65d15b}, !- Handle
  cooling setpoint default day,           !- Name
  {cf2454a7-520b-4970-a656-5d438bf70805}, !- Schedule Type Limits Name
  ,                                       !- Interpolate to Timestep
  24,                                     !- Hour 1
  0,                                      !- Minute 1
  0;                                      !- Value Until Time 1

OS:Schedule:Rule,
  {1abf4794-e000-4ecf-a808-d55c1b98abf1}, !- Handle
  cooling setpoint allday rule,           !- Name
  {50037ca2-409f-4c4f-b53d-f6da90bb91f7}, !- Schedule Ruleset Name
  0,                                      !- Rule Order
  {303d1000-a20d-4226-9cfc-a0aeddbd4390}, !- Day Schedule Name
  Yes,                                    !- Apply Sunday
  Yes,                                    !- Apply Monday
  Yes,                                    !- Apply Tuesday
  Yes,                                    !- Apply Wednesday
  Yes,                                    !- Apply Thursday
  Yes,                                    !- Apply Friday
  Yes,                                    !- Apply Saturday
  DateRange,                              !- Date Specification Type
  1,                                      !- Start Month
  1,                                      !- Start Day
  12,                                     !- End Month
  31;                                     !- End Day

OS:Schedule:Day,
  {303d1000-a20d-4226-9cfc-a0aeddbd4390}, !- Handle
  cooling setpoint day,                   !- Name
  {cf2454a7-520b-4970-a656-5d438bf70805}, !- Schedule Type Limits Name
  ,                                       !- Interpolate to Timestep
  24,                                     !- Hour 1
  0,                                      !- Minute 1
  25.5555555555556;                       !- Value Until Time 1

OS:ThermostatSetpoint:DualSetpoint,
  {2d45c5c4-c8bd-483b-80a6-b94e334684e6}, !- Handle
  conditioned space temperature setpoint, !- Name
  {4d77da10-da24-4404-8faa-551737969c8b}, !- Heating Setpoint Temperature Schedule Name
  {50037ca2-409f-4c4f-b53d-f6da90bb91f7}, !- Cooling Setpoint Temperature Schedule Name
  0;                                      !- Temperature Difference Between Cutout And Setpoint {deltaC}

OS:ScheduleTypeLimits,
  {cf2454a7-520b-4970-a656-5d438bf70805}, !- Handle
  Temperature,                            !- Name
  ,                                       !- Lower Limit Value
  ,                                       !- Upper Limit Value
  Continuous,                             !- Numeric Type
  Temperature;                            !- Unit Type

OS:Surface,
  {36a05152-683a-4e93-bf32-237a43486005}, !- Handle
  Roof1,                                  !- Name
  RoofCeiling,                            !- Surface Type
  {edb4453f-ed63-4ea3-9ff3-b12c649e823a}, !- Construction Name
  {84ca35b4-45b5-4bfa-9666-46cf89f25b8a}, !- Space Name
  Outdoors,                               !- Outside Boundary Condition
  ,                                       !- Outside Boundary Condition Object
  SunExposed,                             !- Sun Exposure
  WindExposed,                            !- Wind Exposure
  ,                                       !- View Factor to Ground
  ,                                       !- Number of Vertices
  -26.9347048849634, 58.0557891618865, 2.4384, !- X,Y,Z Vertex 1 {m}
  -26.9347048849634, 46.7895631136661, 8.0715130241102, !- X,Y,Z Vertex 2 {m}
  -14.3386812381136, 46.7895631136661, 8.0715130241102, !- X,Y,Z Vertex 3 {m}
  -14.3386812381136, 58.0557891618865, 2.4384; !- X,Y,Z Vertex 4 {m}

OS:AdditionalProperties,
  {f3820d57-36b8-42e0-9414-e549bb96825e}, !- Handle
  {36a05152-683a-4e93-bf32-237a43486005}, !- Object Name
  Length,                                 !- Feature Name 1
  Double,                                 !- Feature Data Type 1
  41.325536899113608,                     !- Feature Value 1
  Width,                                  !- Feature Name 2
  Double,                                 !- Feature Data Type 2
  41.325536899113601,                     !- Feature Value 2
  Azimuth,                                !- Feature Name 3
  Integer,                                !- Feature Data Type 3
  0,                                      !- Feature Value 3
  Tilt,                                   !- Feature Name 4
  Double,                                 !- Feature Data Type 4
  0.5,                                    !- Feature Value 4
  SurfaceType,                            !- Feature Name 5
  String,                                 !- Feature Data Type 5
  Roof;                                   !- Feature Value 5

OS:ThermalZone,
  {bb13de73-8dd6-4d9e-8b63-9c264ea5aadb}, !- Handle
  attic - vented,                         !- Name
  1,                                      !- Multiplier
  ,                                       !- Ceiling Height {m}
  356.389957095237,                       !- Volume {m3}
  ,                                       !- Floor Area {m2}
  ,                                       !- Zone Inside Convection Algorithm
  ,                                       !- Zone Outside Convection Algorithm
  ,                                       !- Zone Conditioning Equipment List Name
  {1fc5d1c7-b59e-4aa0-9a48-d5a8a3af933e}, !- Zone Air Inlet Port List
  {45b6d9b1-aeba-4f6c-9de1-dc5486754648}, !- Zone Air Exhaust Port List
  {b38c7571-afea-41b3-aa59-ae251ec56578}, !- Zone Air Node Name
  {d0fb4bb4-c2ef-421f-98ae-5f35de68677b}, !- Zone Return Air Port List
  ,                                       !- Primary Daylighting Control Name
  ,                                       !- Fraction of Zone Controlled by Primary Daylighting Control
  ,                                       !- Secondary Daylighting Control Name
  ,                                       !- Fraction of Zone Controlled by Secondary Daylighting Control
  ,                                       !- Illuminance Map Name
  ,                                       !- Group Rendering Name
  ,                                       !- Thermostat Name
  No;                                     !- Use Ideal Air Loads

OS:Node,
  {c6938c48-6fe7-4580-89d4-f46d7637f9f9}, !- Handle
  Node 2,                                 !- Name
  {b38c7571-afea-41b3-aa59-ae251ec56578}, !- Inlet Port
  ;                                       !- Outlet Port

OS:Connection,
  {b38c7571-afea-41b3-aa59-ae251ec56578}, !- Handle
  {bb13de73-8dd6-4d9e-8b63-9c264ea5aadb}, !- Source Object
  11,                                     !- Outlet Port
  {c6938c48-6fe7-4580-89d4-f46d7637f9f9}, !- Target Object
  2;                                      !- Inlet Port

OS:PortList,
  {1fc5d1c7-b59e-4aa0-9a48-d5a8a3af933e}, !- Handle
  {bb13de73-8dd6-4d9e-8b63-9c264ea5aadb}; !- HVAC Component

OS:PortList,
  {45b6d9b1-aeba-4f6c-9de1-dc5486754648}, !- Handle
  {bb13de73-8dd6-4d9e-8b63-9c264ea5aadb}; !- HVAC Component

OS:PortList,
  {d0fb4bb4-c2ef-421f-98ae-5f35de68677b}, !- Handle
  {bb13de73-8dd6-4d9e-8b63-9c264ea5aadb}; !- HVAC Component

OS:Sizing:Zone,
  {03225b4d-7bc9-473c-9504-7f84e90c0154}, !- Handle
  {bb13de73-8dd6-4d9e-8b63-9c264ea5aadb}, !- Zone or ZoneList Name
  SupplyAirTemperature,                   !- Zone Cooling Design Supply Air Temperature Input Method
  14,                                     !- Zone Cooling Design Supply Air Temperature {C}
  11.11,                                  !- Zone Cooling Design Supply Air Temperature Difference {deltaC}
  SupplyAirTemperature,                   !- Zone Heating Design Supply Air Temperature Input Method
  40,                                     !- Zone Heating Design Supply Air Temperature {C}
  11.11,                                  !- Zone Heating Design Supply Air Temperature Difference {deltaC}
  0.0085,                                 !- Zone Cooling Design Supply Air Humidity Ratio {kg-H2O/kg-air}
  0.008,                                  !- Zone Heating Design Supply Air Humidity Ratio {kg-H2O/kg-air}
  ,                                       !- Zone Heating Sizing Factor
  ,                                       !- Zone Cooling Sizing Factor
  DesignDay,                              !- Cooling Design Air Flow Method
  ,                                       !- Cooling Design Air Flow Rate {m3/s}
  ,                                       !- Cooling Minimum Air Flow per Zone Floor Area {m3/s-m2}
  ,                                       !- Cooling Minimum Air Flow {m3/s}
  ,                                       !- Cooling Minimum Air Flow Fraction
  DesignDay,                              !- Heating Design Air Flow Method
  ,                                       !- Heating Design Air Flow Rate {m3/s}
  ,                                       !- Heating Maximum Air Flow per Zone Floor Area {m3/s-m2}
  ,                                       !- Heating Maximum Air Flow {m3/s}
  ,                                       !- Heating Maximum Air Flow Fraction
  No,                                     !- Account for Dedicated Outdoor Air System
  NeutralSupplyAir,                       !- Dedicated Outdoor Air System Control Strategy
  autosize,                               !- Dedicated Outdoor Air Low Setpoint Temperature for Design {C}
  autosize,                               !- Dedicated Outdoor Air High Setpoint Temperature for Design {C}
  Sensible Load Only No Latent Load,      !- Zone Load Sizing Method
  HumidityRatioDifference,                !- Zone Latent Cooling Design Supply Air Humidity Ratio Input Method
  ,                                       !- Zone Dehumidification Design Supply Air Humidity Ratio {kgWater/kgDryAir}
  0.005,                                  !- Zone Cooling Design Supply Air Humidity Ratio Difference {kgWater/kgDryAir}
  HumidityRatioDifference,                !- Zone Latent Heating Design Supply Air Humidity Ratio Input Method
  ,                                       !- Zone Humidification Design Supply Air Humidity Ratio {kgWater/kgDryAir}
  0.005,                                  !- Zone Humidification Design Supply Air Humidity Ratio Difference {kgWater/kgDryAir}
  ,                                       !- Zone Humidistat Dehumidification Set Point Schedule Name
  ,                                       !- Zone Humidistat Humidification Set Point Schedule Name
  ,                                       !- Design Zone Air Distribution Effectiveness in Cooling Mode
  ,                                       !- Design Zone Air Distribution Effectiveness in Heating Mode
  ,                                       !- Design Zone Secondary Recirculation Fraction {dimensionless}
  ,                                       !- Design Minimum Zone Ventilation Efficiency {dimensionless}
  Coincident;                             !- Sizing Option

OS:ZoneHVAC:EquipmentList,
  {c69ca69e-ff5b-4c8c-8707-50f7508ca453}, !- Handle
  Zone HVAC Equipment List 2,             !- Name
  {bb13de73-8dd6-4d9e-8b63-9c264ea5aadb}; !- Thermal Zone

OS:AdditionalProperties,
  {0d1923b1-958e-4d5a-bef5-3fd279a5264d}, !- Handle
  {bb13de73-8dd6-4d9e-8b63-9c264ea5aadb}, !- Object Name
  ObjectType,                             !- Feature Name 1
  String,                                 !- Feature Data Type 1
  attic - vented;                         !- Feature Value 1

OS:Space,
  {84ca35b4-45b5-4bfa-9666-46cf89f25b8a}, !- Handle
  attic - vented 1,                       !- Name
  ,                                       !- Space Type Name
  ,                                       !- Default Construction Set Name
  ,                                       !- Default Schedule Set Name
  ,                                       !- Direction of Relative North {deg}
  ,                                       !- X Origin {m}
  ,                                       !- Y Origin {m}
  ,                                       !- Z Origin {m}
  ,                                       !- Building Story Name
  {bb13de73-8dd6-4d9e-8b63-9c264ea5aadb}, !- Thermal Zone Name
  ,                                       !- Part of Total Floor Area
  ,                                       !- Design Specification Outdoor Air Object Name
  ,                                       !- Building Unit Name
  356.389957095237;                       !- Volume {m3}

OS:Material,
  {cc5f68eb-cd19-420e-ad15-e9ebe668bf2a}, !- Handle
  asphalt or fiberglass shingles,         !- Name
  Rough,                                  !- Roughness
  0.00635,                                !- Thickness {m}
  0.162714,                               !- Conductivity {W/m-K}
  1121.4,                                 !- Density {kg/m3}
  1465.45,                                !- Specific Heat {J/kg-K}
  0.9,                                    !- Thermal Absorptance
  0.85,                                   !- Solar Absorptance
  0.85;                                   !- Visible Absorptance

OS:Material,
  {12c0a16d-c62f-4c49-a4f4-375cd3adcf53}, !- Handle