
OS:Version,
  {133e32bc-dc22-451d-83f1-9dd4377b5c03}, !- Handle
  3.10.0;                                 !- Version Identifier

OS:SimulationControl,
  {92ab59f9-3c93-4c0e-bb5d-5d0d69997f22}, !- Handle
  ,                                       !- Do Zone Sizing Calculation
  ,                                       !- Do System Sizing Calculation
  ,                                       !- Do Plant Sizing Calculation
  No;                                     !- Run Simulation for Sizing Periods

OS:Timestep,
  {260d2578-de98-4e27-8843-7f4f5afc8cbd}, !- Handle
  1;                                      !- Number of Timesteps per Hour

OS:ShadowCalculation,
  {241ed784-66c4-4396-92e1-4f50b9fe1f6d}, !- Handle
  PolygonClipping,                        !- Shading Calculation Method
  ,                                       !- Shading Calculation Update Frequency Method
  20,                                     !- Shading Calculation Update Frequency
  200,                                    !- Maximum Figures in Shadow Overlap Calculations
  ,                                       !- Polygon Clipping Algorithm
  512,                                    !- Pixel Counting Resolution
  ,                                       !- Sky Diffuse Modeling Algorithm
  No,                                     !- Output External Shading Calculation Results
  No,                                     !- Disable Self-Shading Within Shading Zone Groups
  No;                                     !- Disable Self-Shading From Shading Zone Groups to Other Zones

OS:SurfaceConvectionAlgorithm:Outside,
  {07980907-3566-44d2-a50c-70fd9be1c0f2}, !- Handle
  DOE-2;                                  !- Algorithm

OS:SurfaceConvectionAlgorithm:Inside,
  {2e2693ba-30ce-4933-a92f-29ef93a25c6d}, !- Handle
  TARP;                                   !- Algorithm

OS:ZoneCapacitanceMultiplier:ResearchSpecial,
  {e3735749-1082-4cf9-92e5-e957d9d0ba7e}, !- Handle
  7,                                      !- Temperature Capacity Multiplier
  15,                                     !- Humidity Capacity Multiplier
  ;                                       !- Carbon Dioxide Capacity Multiplier

OS:ConvergenceLimits,
  {26ba0df0-bf35-47e3-9211-21c544c344c2}, !- Handle
  0;                                      !- Minimum System Timestep {minutes}

OS:RunPeriod,
  {c03b8587-d37c-4ae5-9d3a-c26c0887505e}, !- Handle
  Run Period 1,                           !- Name
  1,                                      !- Begin Month
  1,                                      !- Begin Day of Month
  12,                                     !- End Month
  31,                                     !- End Day of Month
  ,                                       !- Use Weather File Holidays and Special Days
  ,                                       !- Use Weather File Daylight Saving Period
  ,                                       !- Apply Weekend Holiday Rule
  ,                                       !- Use Weather File Rain Indicators
  ,                                       !- Use Weather File Snow Indicators
  ;                                       !- Number of Times Runperiod to be Repeated

OS:PerformancePrecisionTradeoffs,
  {e572e771-d592-4aaf-9e53-274add385915}, !- Handle
  ,                                       !- Use Coil Direct Solutions
  CarrollMRT;                             !- Zone Radiant Exchange Algorithm

OS:WeatherFile,
  {d82ea527-5fc6-4c22-adc3-e8310cc0085a}, !- Handle
  Buffalo Niagara Intl Ap,                !- City
  NY,                                     !- State Province Region
  USA,                                    !- Country
  TMY3,                                   !- Data Source
  725280,                                 !- WMO Number
  42.93,                                  !- Latitude {deg}
  -78.73,                                 !- Longitude {deg}
  -5,                                     !- Time Zone {hr}
  215,                                    !- Elevation {m}
  /Users/nmoore/github/urbanopt-example-geojson-project/example_project/weather/USA_NY_Buffalo-Greater.Buffalo.Intl.AP.725280_TMY3.epw, !- Url
  6B50E0FF,                               !- Checksum
  ,                                       !- Start Date Actual Year
  Sunday;                                 !- Start Day of Week

OS:YearDescription,
  {6c7454de-15e2-4e4a-8bfe-27910f0aa9ea}, !- Handle
  2007,                                   !- Calendar Year
  ,                                       !- Day of Week for Start Day
  ;                                       !- Is Leap Year

OS:Site,
  {5c94f804-afb2-4ec9-9c22-05dd918acef7}, !- Handle
  Buffalo Niagara Intl Ap_NY,             !- Name
  42.93,                                  !- Latitude {deg}
  -78.73,                                 !- Longitude {deg}
  -5,                                     !- Time Zone {hr}
  215,                                    !- Elevation {m}
  Suburbs,                                !- Terrain
  Yes;                                    !- Keep Site Location Information

OS:RunPeriodControl:DaylightSavingTime,
  {3bc648dc-2c73-45d4-9de8-fc8f60ffefe8}, !- Handle
  Mar 12,                                 !- Start Date
  Nov 5;                                  !- End Date

OS:Site:GroundTemperature:Shallow,
  {56a5eceb-a426-4c2a-a6c1-f0512a1e070c}, !- Handle
  4.30207395723828,                       !- January Surface Ground Temperature {C}
  2.29327249652502,                       !- February Surface Ground Temperature {C}
  2.13240047156047,                       !- March Surface Ground Temperature {C}
  3.08567940719286,                       !- April Surface Ground Temperature {C}
  6.91256312497526,                       !- May Surface Ground Temperature {C}
  10.7216195949507,                       !- June Surface Ground Temperature {C}
  14.0238679822574,                       !- July Surface Ground Temperature {C}
  16.1157611184724,                       !- August Surface Ground Temperature {C}
  16.2934789303462,                       !- September Surface Ground Temperature {C}
  14.5920754632847,                       !- October Surface Ground Temperature {C}
  11.374036348653,                        !- November Surface Ground Temperature {C}
  7.68182621661674;                       !- December Surface Ground Temperature {C}

OS:ThermalZone,
  {83f243fd-008a-4a03-96e4-628ae3898a50}, !- Handle
  conditioned space,                      !- Name
  1,                                      !- Multiplier
  ,                                       !- Ceiling Height {m}
  692.06373070848,                        !- Volume {m3}
  ,                                       !- Floor Area {m2}
  ,                                       !- Zone Inside Convection Algorithm
  ,                                       !- Zone Outside Convection Algorithm
  ,                                       !- Zone Conditioning Equipment List Name
  {332ef067-6d2b-423a-b14a-24afdabb9f8d}, !- Zone Air Inlet Port List
  {16420d29-c35e-4fb7-9017-c92a840a6bf6}, !- Zone Air Exhaust Port List
  {70a4576f-45ee-406d-8d02-b8fb67073893}, !- Zone Air Node Name
  {68e7156b-87a6-4a1b-ae0f-72a62c818e3e}, !- Zone Return Air Port List
  ,                                       !- Primary Daylighting Control Name
  ,                                       !- Fraction of Zone Controlled by Primary Daylighting Control
  ,                                       !- Secondary Daylighting Control Name
  ,                                       !- Fraction of Zone Controlled by Secondary Daylighting Control
  ,                                       !- Illuminance Map Name
  ,                                       !- Group Rendering Name
  {1dfb9e5e-8999-476a-8fc7-51d4ad5d5e96}, !- Thermostat Name
  No;                                     !- Use Ideal Air Loads

OS:Node,
  {004c2c61-7a7c-4e88-b8a7-4a61c53af4cb}, !- Handle
  Node 1,                                 !- Name
  {70a4576f-45ee-406d-8d02-b8fb67073893}, !- Inlet Port
  ;                                       !- Outlet Port

OS:Connection,
  {70a4576f-45ee-406d-8d02-b8fb67073893}, !- Handle
  {83f243fd-008a-4a03-96e4-628ae3898a50}, !- Source Object
  11,                                     !- Outlet Port
  {004c2c61-7a7c-4e88-b8a7-4a61c53af4cb}, !- Target Object
  2;                                      !- Inlet Port

OS:PortList,
  {332ef067-6d2b-423a-b14a-24afdabb9f8d}, !- Handle
  {83f243fd-008a-4a03-96e4-628ae3898a50}, !- HVAC Component
  {86feae33-09ed-4baf-accc-3a4ee1c5dc28}; !- Port 1

OS:PortList,
  {16420d29-c35e-4fb7-9017-c92a840a6bf6}, !- Handle
  {83f243fd-008a-4a03-96e4-628ae3898a50}; !- HVAC Component

OS:PortList,
  {68e7156b-87a6-4a1b-ae0f-72a62c818e3e}, !- Handle
  {83f243fd-008a-4a03-96e4-628ae3898a50}, !- HVAC Component
  {e4a85fe4-e626-43b8-9dd9-bc8e6cdb85cc}; !- Port 1

OS:Sizing:Zone,
  {3a9a2c24-1901-4ffb-852b-9e26968dd0d0}, !- Handle
  {83f243fd-008a-4a03-96e4-628ae3898a50}, !- Zone or ZoneList Name
  SupplyAirTemperature,                   !- Zone Cooling Design Supply Air Temperature Input Method
  14,                                     !- Zone Cooling Design Supply Air Temperature {C}
  11.11,                                  !- Zone Cooling Design Supply Air Temperature Difference {deltaC}
  SupplyAirTemperature,                   !- Zone Heating Design Supply Air Temperature Input Method
  40,                                     !- Zone Heating Design Supply Air Temperature {C}
  11.11,                                  !- Zone Heating Design Supply Air Temperature Difference {deltaC}
  0.0085,                                 !- Zone Cooling Design Supply Air Humidity Ratio {kg-H2O/kg-air}
  0.008,                                  !- Zone Heating Design Supply Air Humidity Ratio {kg-H2O/kg-air}
  ,                                       !- Zone Heating Sizing Factor
  ,                                       !- Zone Cooling Sizing Factor
  DesignDay,                              !- Cooling Design Air Flow Method
  ,                                       !- Cooling Design Air Flow Rate {m3/s}
  ,                                       !- Cooling Minimum Air Flow per Zone Floor Area {m3/s-m2}
  ,                                       !- Cooling Minimum Air Flow {m3/s}
  ,                                       !- Cooling Minimum Air Flow Fraction
  DesignDay,                              !- Heating Design Air Flow Method
  ,                                       !- Heating Design Air Flow Rate {m3/s}
  ,                                       !- Heating Maximum Air Flow per Zone Floor Area {m3/s-m2}
  ,                                       !- Heating Maximum Air Flow {m3/s}
  ,                                       !- Heating Maximum Air Flow Fraction
  No,                                     !- Account for Dedicated Outdoor Air System
  NeutralSupplyAir,                       !- Dedicated Outdoor Air System Control Strategy
  autosize,                               !- Dedicated Outdoor Air Low Setpoint Temperature for Design {C}
  autosize,                               !- Dedicated Outdoor Air High Setpoint Temperature for Design {C}
  Sensible Load Only No Latent Load,      !- Zone Load Sizing Method
  HumidityRatioDifference,                !- Zone Latent Cooling Design Supply Air Humidity Ratio Input Method
  ,                                       !- Zone Dehumidification Design Supply Air Humidity Ratio {kgWater/kgDryAir}
  0.005,                                  !- Zone Cooling Design Supply Air Humidity Ratio Difference {kgWater/kgDryAir}
  HumidityRatioDifference,                !- Zone Latent Heating Design Supply Air Humidity Ratio Input Method
  ,                                       !- Zone Humidification Design Supply Air Humidity Ratio {kgWater/kgDryAir}
  0.005,                                  !- Zone Humidification Design Supply Air Humidity Ratio Difference {kgWater/kgDryAir}
  ,                                       !- Zone Humidistat Dehumidification Set Point Schedule Name
  ,                                       !- Zone Humidistat Humidification Set Point Schedule Name
  ,                                       !- Design Zone Air Distribution Effectiveness in Cooling Mode
  ,                                       !- Design Zone Air Distribution Effectiveness in Heating Mode
  ,                                       !- Design Zone Secondary Recirculation Fraction {dimensionless}
  ,                                       !- Design Minimum Zone Ventilation Efficiency {dimensionless}
  Coincident;                             !- Sizing Option

OS:ZoneHVAC:EquipmentList,
  {ef84581f-e21a-4915-81ad-a0740a567f23}, !- Handle
  Zone HVAC Equipment List 1,             !- Name
  {83f243fd-008a-4a03-96e4-628ae3898a50}, !- Thermal Zone
  ,                                       !- Load Distribution Scheme
  {59bdd57e-ba5b-4a75-8d23-05937fab4003}, !- Zone Equipment 1
  1,                                      !- Zone Equipment Cooling Sequence 1
  1,                                      !- Zone Equipment Heating or No-Load Sequence 1
  {5ac21e90-d256-4f68-aea2-52fdc985aeb3}, !- Zone Equipment Sequential Cooling Fraction Schedule Name 1
  {e67a84d1-ddbe-4f7e-ac33-e7085cb577f2}; !- Zone Equipment Sequential Heating Fraction Schedule Name 1

OS:AdditionalProperties,
  {854fcfcf-b947-4e1c-b17a-399c45ecdb68}, !- Handle
  {83f243fd-008a-4a03-96e4-628ae3898a50}, !- Object Name
  ObjectType,                             !- Feature Name 1
  String,                                 !- Feature Data Type 1
  conditioned space;                      !- Feature Value 1

OS:Space,
  {2eb59480-b2b5-4c91-a018-c3ee011b807c}, !- Handle
  conditioned space 1,                    !- Name
  ,                                       !- Space Type Name
  ,                                       !- Default Construction Set Name
  ,                                       !- Default Schedule Set Name
  ,                                       !- Direction of Relative North {deg}
  ,                                       !- X Origin {m}
  ,                                       !- Y Origin {m}
  ,                                       !- Z Origin {m}
  ,                                       !- Building Story Name
  {83f243fd-008a-4a03-96e4-628ae3898a50}, !- Thermal Zone Name
  ,                                       !- Part of Total Floor Area
  ,                                       !- Design Specification Outdoor Air Object Name
  ,                                       !- Building Unit Name
  692.06373070848;                        !- Volume {m3}

OS:Schedule:Ruleset,
  {82441458-4e9b-4119-9ec7-907a6f5af4ac}, !- Handle
  heating setpoint,                       !- Name
  {5c9106b7-e53d-4b3d-bd29-96b839134494}, !- Schedule Type Limits Name
  {bab32167-0c1f-4b72-8138-c136e33bbbba}; !- Default Day Schedule Name

OS:Schedule:Day,
  {bab32167-0c1f-4b72-8138-c136e33bbbba}, !- Handle
  heating setpoint default day,           !- Name
  {5c9106b7-e53d-4b3d-bd29-96b839134494}, !- Schedule Type Limits Name
  ,                                       !- Interpolate to Timestep
  24,                                     !- Hour 1
  0,                                      !- Minute 1
  0;                                      !- Value Until Time 1

OS:Schedule:Rule,
  {4fc34f7b-6c7d-42c0-8132-65e5de5de924}, !- Handle
  heating setpoint allday rule,           !- Name
  {82441458-4e9b-4119-9ec7-907a6f5af4ac}, !- Schedule Ruleset Name
  0,                                      !- Rule Order
  {2297ca73-ef35-4291-bf5d-cf2e4018bba5}, !- Day Schedule Name
  Yes,                                    !- Apply Sunday
  Yes,                                    !- Apply Monday
  Yes,                                    !- Apply Tuesday
  Yes,                                    !- Apply Wednesday
  Yes,                                    !- Apply Thursday
  Yes,                                    !- Apply Friday
  Yes,                                    !- Apply Saturday
  DateRange,                              !- Date Specification Type
  1,                                      !- Start Month
  1,                                      !- Start Day
  12,                                     !- End Month
  31;                                     !- End Day

OS:Schedule:Day,
  {2297ca73-ef35-4291-bf5d-cf2e4018bba5}, !- Handle
  heating setpoint day,                   !- Name
  {5c9106b7-e53d-4b3d-bd29-96b839134494}, !- Schedule Type Limits Name
  ,                                       !- Interpolate to Timestep
  24,                                     !- Hour 1
  0,                                      !- Minute 1
  20;                                     !- Value Until Time 1

OS:Schedule:Ruleset,
  {3c62723c-1429-4b9f-a20e-4110e8616bb2}, !- Handle
  cooling setpoint,                       !- Name
  {5c9106b7-e53d-4b3d-bd29-96b839134494}, !- Schedule Type Limits Name
  {8eeedc65-294d-4c94-b53e-30253038e960}; !- Default Day Schedule Name

OS:Schedule:Day,
  {8eeedc65-294d-4c94-b53e-30253038e960}, !- Handle
  cooling setpoint default day,           !- Name
  {5c9106b7-e53d-4b3d-bd29-96b839134494}, !- Schedule Type Limits Name
  ,                                       !- Interpolate to Timestep
  24,                                     !- Hour 1
  0,                                      !- Minute 1
  0;                                      !- Value Until Time 1

OS:Schedule:Rule,
  {98d082f5-5138-4fc3-a17f-de40f16cab78}, !- Handle
  cooling setpoint allday rule,           !- Name
  {3c62723c-1429-4b9f-a20e-4110e8616bb2}, !- Schedule Ruleset Name
  0,                                      !- Rule Order
  {875adece-6da6-4a2d-aa9c-69969224c813}, !- Day Schedule Name
  Yes,                                    !- Apply Sunday
  Yes,                                    !- Apply Monday
  Yes,                                    !- Apply Tuesday
  Yes,                                    !- Apply Wednesday
  Yes,                                    !- Apply Thursday
  Yes,                                    !- Apply Friday
  Yes,                                    !- Apply Saturday
  DateRange,                              !- Date Specification Type
  1,                                      !- Start Month
  1,                                      !- Start Day
  12,                                     !- End Month
  31;                                     !- End Day

OS:Schedule:Day,
  {875adece-6da6-4a2d-aa9c-69969224c813}, !- Handle
  cooling setpoint day,                   !- Name
  {5c9106b7-e53d-4b3d-bd29-96b839134494}, !- Schedule Type Limits Name
  ,                                       !- Interpolate to Timestep
  24,                                     !- Hour 1
  0,                                      !- Minute 1
  25.5555555555556;                       !- Value Until Time 1

OS:ThermostatSetpoint:DualSetpoint,
  {1dfb9e5e-8999-476a-8fc7-51d4ad5d5e96}, !- Handle
  conditioned space temperature setpoint, !- Name
  {82441458-4e9b-4119-9ec7-907a6f5af4ac}, !- Heating Setpoint Temperature Schedule Name
  {3c62723c-1429-4b9f-a20e-4110e8616bb2}, !- Cooling Setpoint Temperature Schedule Name
  0;                                      !- Temperature Difference Between Cutout And Setpoint {deltaC}

OS:ScheduleTypeLimits,
  {5c9106b7-e53d-4b3d-bd29-96b839134494}, !- Handle
  Temperature,                            !- Name
  ,                                       !- Lower Limit Value
  ,                                       !- Upper Limit Value
  Continuous,                             !- Numeric Type
  Temperature;                            !- Unit Type

OS:Surface,
  {bfc55288-b336-498a-a142-aebc9f4d2e37}, !- Handle
  Roof1,                                  !- Name
  RoofCeiling,                            !- Surface Type
  {4eabd34c-67af-4832-a047-a326086c9f78}, !- Construction Name
  {2eb59480-b2b5-4c91-a018-c3ee011b807c}, !- Space Name
  Outdoors,                               !- Outside Boundary Condition
  ,                                       !- Outside Boundary Condition Object
  SunExposed,                             !- Sun Exposure
  WindExposed,                            !- Wind Exposure
  ,                                       !- View Factor to Ground
  ,                                       !- Number of Vertices
  -8.42346109387347, 8.42346109387347, 2.4384, !- X,Y,Z Vertex 1 {m}
  -8.42346109387347, -8.42346109387347, 2.4384, !- X,Y,Z Vertex 2 {m}
  8.42346109387347, -8.42346109387347, 2.4384, !- X,Y,Z Vertex 3 {m}
  8.42346109387347, 8.42346109387347, 2.4384; !- X,Y,Z Vertex 4 {m}

OS:AdditionalProperties,
  {b64de477-0242-452d-85fd-7015cb4ba173}, !- Handle
  {bfc55288-b336-498a-a142-aebc9f4d2e37}, !- Object Name
  Length,                                 !- Feature Name 1
  Double,                                 !- Feature Data Type 1
  55.27205442174192,                      !- Feature Value 1
  Width,                                  !- Feature Name 2
  Double,                                 !- Feature Data Type 2
  55.272054421741913,                     !- Feature Value 2
  Azimuth,                                !- Feature Name 3
  Integer,                                !- Feature Data Type 3
  0,                                      !- Feature Value 3
  Tilt,                                   !- Feature Name 4
  Double,                                 !- Feature Data Type 4
  0,                                      !- Feature Value 4
  SurfaceType,                            !- Feature Name 5
  String,                                 !- Feature Data Type 5
  Roof;                                   !- Feature Value 5

OS:Material,
  {f67c1513-96cd-495f-b839-1b4fb2a59743}, !- Handle
  asphalt or fiberglass shingles,         !- Name
  Rough,                                  !- Roughness
  0.00635,                                !- Thickness {m}
  0.162714,                               !- Conductivity {W/m-K}
  1121.4,                                 !- Density {kg/m3}
  1465.45,                                !- Specific Heat {J/kg-K}
  0.9,                                    !- Thermal Absorptance
  0.85,                                   !- Solar Absorptance
  0.85;                                   !- Visible Absorptance

OS:Material,
  {959cbcb5-6675-4d59-85b0-e687cb055e44}, !- Handle
  roof stud and cavity,                   !- Name
  Rough,                                  !- Roughness
  0.0889,                                 !- Thickness {m}
  0.491900632004487,                      !- Conductivity {W/m-K}
  50.32683,                               !- Density {kg/m3}
  1063.80987585548,                       !- Specific Heat {J/kg-K}
  0.9,                                    !- Thermal Absorptance
  0.7,                                    !- Solar Absorptance
  0.7;                                    !- Visible Absorptance

OS:Material,
  {fb6af357-5234-42b9-a4a8-a96b6b50e9af}, !- Handle
  gypsum board,                           !- Name
  Rough,                                  !- Roughness
  0.00254,                                !- Thickness {m}
  0.1602906,                              !- Conductivity {W/m-K}
  801,                                    !- Density {kg/m3}
  837.4,                                  !- Specific Heat {J/kg-K}
  0.9,                                    !- Thermal Absorptance
  0.6,                                    !- Solar Absorptance
  0.6;                                    !- Visible Absorptance

OS:Construction,
  {4eabd34c-67af-4832-a047-a326086c9f78}, !- Handle
  Roof1 construction,                     !- Name
  ,                                       !- Surface Rendering Name
  {f67c1513-96cd-495f-b839-1b4fb2a59743}, !- Layer 1
  {959cbcb5-6675-4d59-85b0-e687cb055e44}, !- Layer 2
  {fb6af357-5234-42b9-a4a8-a96b6b50e9af}; !- Layer 3

OS:Surface,
  {6459e0bc-7c74-4b60-85d6-882f3d06aaad}, !- Handle
  Wall1,                                  !- Name
  Wall,                                   !- Surface Type
  {8ca224be-bffe-4ad0-b5ea-83e74421c965}, !- Construction Name
  {2eb59480-b2b5-4c91-a018-c3ee011b807c}, !- Space Name
  Outdoors,                               !- Outside Boundary Condition
  ,                                       !- Outside Boundary Condition Object
  SunExposed,                             !- Sun Exposure
  WindExposed,                            !- Wind Exposure
  ,                                       !- View Factor to Ground
  ,                                       !- Number of Vertices
  -13.6265098242187, 15.6365136527044, 0, !- X,Y,Z Vertex 1 {m}
  -13.6265098242187, 15.6365136527044, 2.4384, !- X,Y,Z Vertex 2 {m}
  5.90736017578134, 15.6365136527044, 2.4384, !- X,Y,Z Vertex 3 {m}
  5.90736017578134, 15.6365136527044, 0;  !- X,Y,Z Vertex 4 {m}

OS:AdditionalProperties,
  {501c3e67-527f-44ce-8c9b-9c9f48226c35}, !- Handle
  {6459e0bc-7c74-4b60-85d6-882f3d06aaad}, !- Object Name
  Length,                                 !- Feature Name 1
  Double,                                 !- Feature Data Type 1
  64.087499999999991,                     !- Feature Value 1
  Azimuth,                                !- Feature Name 2
  Integer,                                !- Feature Data Type 2
  0,                                      !- Feature Value 2
  Tilt,                                   !- Feature Name 3
  Double,                                 !- Feature Data Type 3
  90,                                     !- Feature Value 3
  SurfaceType,                            !- Feature Name 4
  String,                                 !- Feature Data Type 4
  Wall;                                   !- Feature Value 4

OS:Material,
  {d84a0ab6-759f-4339-ad7f-fadfedbec6dc}, !- Handle
  wood siding,                            !- Name
  Rough,                                  !- Roughness
  0.0254,                                 !- Thickness {m}
  0.1024175,                              !- Conductivity {W/m-K}
  544.68,                                 !- Density {kg/m3}
  1172.36,                                !- Specific Heat {J/kg-K}
  0.9,                                    !- Thermal Absorptance
  0.7,                                    !- Solar Absorptance
  0.7;                                    !- Visible Absorptance

OS:Material,
  {0fc11711-2ea1-4a29-a5fd-4a94b4671514}, !- Handle
  osb sheathing 0.5 in.,                  !- Name
  Rough,                                  !- Roughness
  0.0127,                                 !- Thickness {m}
  0.1154577,                              !- Conductivity {W/m-K}
  512.64,                                 !- Density {kg/m3}
  1214.23,                                !- Specific Heat {J/kg-K}
  0.9,                                    !- Thermal Absorptance
  0.7,                                    !- Solar Absorptance
  0.7;                                    !- Visible Absorptance

OS:Material,
  {5b0668b6-2f8d-45a3-965b-908e27801137}, !- Handle
  wall stud and cavity,                   !- Name
  Rough,                                  !- Roughness
  0.1397,                                 !- Thickness {m}
  0.0929021674204099,                     !- Conductivity {W/m-K}
  139.0536,                               !- Density {kg/m3}
  1170.23755760369,                       !- Specific Heat {J/kg-K}
  0.9,                                    !- Thermal Absorptance
  0.7,                                    !- Solar Absorptance
  0.7;                                    !- Visible Absorptance

OS:Material,
  {27193728-b38c-4c5d-86aa-4989516606a4}, !- Handle
  gypsum board 1,                         !- Name
  Rough,                                  !- Roughness
  0.0127,                                 !- Thickness {m}
  0.1602906,                              !- Conductivity {W/m-K}
  801,                                    !- Density {kg/m3}
  837.4,                                  !- Specific Heat {J/kg-K}
  0.9,                                    !- Thermal Absorptance
  0.6,                                    !- Solar Absorptance
  0.6;                                    !- Visible Absorptance

OS:Construction,
  {8ca224be-bffe-4ad0-b5ea-83e74421c965}, !- Handle
  Wall1 construction,                     !- Name
  ,                                       !- Surface Rendering Name
  {d84a0ab6-759f-4339-ad7f-fadfedbec6dc}, !- Layer 1
  {0fc11711-2ea1-4a29-a5fd-4a94b4671514}, !- Layer 2
  {5b0668b6-2f8d-45a3-965b-908e27801137}, !- Layer 3
  {27193728-b38c-4c5d-86aa-4989516606a4}; !- Layer 4

OS:Surface,
  {da18c4b9-2e22-456d-b6d3-0c09deae3f67}, !- Handle
  Wall2,                                  !- Name
  Wall,                                   !- Surface Type
  {68bf64d7-35ef-4c15-b056-91ae512f5183}, !- Construction Name
  {2eb59480-b2b5-4c91-a018-c3ee011b807c}, !- Space Name
  Outdoors,                               !- Outside Boundary Condition
  ,                                       !- Outside Boundary Condition Object
  SunExposed,                             !- Sun Exposure
  WindExposed,                            !- Wind Exposure
  ,                                       !- View Factor to Ground
  ,                                       !- Number of Vertices
  15.6365136527044, -0.538581714242879, 0, !- X,Y,Z Vertex 1 {m}
  15.6365136527044, -0.538581714242879, 2.4384, !- X,Y,Z Vertex 2 {m}
  15.6365136527044, -10.3074217142429, 2.4384, !- X,Y,Z Vertex 3 {m}
  15.6365136527044, -10.3074217142429, 0; !- X,Y,Z Vertex 4 {m}

OS:AdditionalProperties,
  {62f14d02-82fe-4a50-bc4c-eb4c4d464f64}, !- Handle
  {da18c4b9-2e22-456d-b6d3-0c09deae3f67}, !- Object Name
  Length,                                 !- Feature Name 1
  Double,                                 !- Feature Data Type 1
  32.049999999999997,                     !- Feature Value 1
  Azimuth,                                !- Feature Name 2