
OS:Version,
  {ee5c431a-b56d-411e-828a-c25c56e2b037}, !- Handle
  3.9.0;                                  !- Version Identifier

OS:SimulationControl,
  {606c550a-294c-4d8a-9622-9577c597c375}, !- Handle
  ,                                       !- Do Zone Sizing Calculation
  ,                                       !- Do System Sizing Calculation
  ,                                       !- Do Plant Sizing Calculation
  No;                                     !- Run Simulation for Sizing Periods

OS:Timestep,
  {1345447e-f292-4bfc-bbd5-82e355f47dd1}, !- Handle
  1;                                      !- Number of Timesteps per Hour

OS:ShadowCalculation,
  {bf35e3fb-789e-48d4-8680-5376deed31ab}, !- Handle
  PolygonClipping,                        !- Shading Calculation Method
  ,                                       !- Shading Calculation Update Frequency Method
  20,                                     !- Shading Calculation Update Frequency
  200,                                    !- Maximum Figures in Shadow Overlap Calculations
  ,                                       !- Polygon Clipping Algorithm
  512,                                    !- Pixel Counting Resolution
  ,                                       !- Sky Diffuse Modeling Algorithm
  No,                                     !- Output External Shading Calculation Results
  No,                                     !- Disable Self-Shading Within Shading Zone Groups
  No;                                     !- Disable Self-Shading From Shading Zone Groups to Other Zones

OS:SurfaceConvectionAlgorithm:Outside,
  {a69b4996-c8b3-4ac5-9af4-4df73babd5c7}, !- Handle
  DOE-2;                                  !- Algorithm

OS:SurfaceConvectionAlgorithm:Inside,
  {e370a90a-8fde-4225-8eac-0e4169984c88}, !- Handle
  TARP;                                   !- Algorithm

OS:ZoneCapacitanceMultiplier:ResearchSpecial,
  {c15d4742-9559-41c5-a24a-969453991389}, !- Handle
  7,                                      !- Temperature Capacity Multiplier
  15,                                     !- Humidity Capacity Multiplier
  ;                                       !- Carbon Dioxide Capacity Multiplier

OS:ConvergenceLimits,
  {54907560-4d46-430a-96ab-f06743511466}, !- Handle
  0;                                      !- Minimum System Timestep {minutes}

OS:RunPeriod,
  {caede7c7-9620-43f9-b4ff-c69855b1dda7}, !- Handle
  Run Period 1,                           !- Name
  1,                                      !- Begin Month
  1,                                      !- Begin Day of Month
  12,                                     !- End Month
  31,                                     !- End Day of Month
  ,                                       !- Use Weather File Holidays and Special Days
  ,                                       !- Use Weather File Daylight Saving Period
  ,                                       !- Apply Weekend Holiday Rule
  ,                                       !- Use Weather File Rain Indicators
  ,                                       !- Use Weather File Snow Indicators
  ;                                       !- Number of Times Runperiod to be Repeated

OS:PerformancePrecisionTradeoffs,
  {be54e2dc-c366-4db5-ad63-bc971afd3bd8}, !- Handle
  ,                                       !- Use Coil Direct Solutions
  CarrollMRT;                             !- Zone Radiant Exchange Algorithm

OS:WeatherFile,
  {bed1cfa9-2df6-4c0b-855d-b4f4fb5c0aaf}, !- Handle
  Buffalo Niagara Intl Ap,                !- City
  NY,                                     !- State Province Region
  USA,                                    !- Country
  TMY3,                                   !- Data Source
  725280,                                 !- WMO Number
  42.93,                                  !- Latitude {deg}
  -78.73,                                 !- Longitude {deg}
  -5,                                     !- Time Zone {hr}
  215,                                    !- Elevation {m}
  /Users/nmoore/github/urbanopt-example-geojson-project/example_project/weather/USA_NY_Buffalo-Greater.Buffalo.Intl.AP.725280_TMY3.epw, !- Url
  6B50E0FF,                               !- Checksum
  ,                                       !- Start Date Actual Year
  Sunday;                                 !- Start Day of Week

OS:YearDescription,
  {bf231f78-3d2e-4ecd-90f8-c825c79e6735}, !- Handle
  2007,                                   !- Calendar Year
  ,                                       !- Day of Week for Start Day
  ;                                       !- Is Leap Year

OS:Site,
  {496edb42-f075-4b5a-82c6-d954a94fed37}, !- Handle
  Buffalo Niagara Intl Ap_NY,             !- Name
  42.93,                                  !- Latitude {deg}
  -78.73,                                 !- Longitude {deg}
  -5,                                     !- Time Zone {hr}
  215,                                    !- Elevation {m}
  Suburbs,                                !- Terrain
  Yes;                                    !- Keep Site Location Information

OS:RunPeriodControl:DaylightSavingTime,
  {08a8154c-f7fc-4325-a83a-af5c3d40ea88}, !- Handle
  Mar 12,                                 !- Start Date
  Nov 5;                                  !- End Date

OS:Site:GroundTemperature:Shallow,
  {f2f32e07-0b1d-4b2c-91c1-c0726e49ef32}, !- Handle
  4.30207395723828,                       !- January Surface Ground Temperature {C}
  2.29327249652502,                       !- February Surface Ground Temperature {C}
  2.13240047156047,                       !- March Surface Ground Temperature {C}
  3.08567940719286,                       !- April Surface Ground Temperature {C}
  6.91256312497526,                       !- May Surface Ground Temperature {C}
  10.7216195949507,                       !- June Surface Ground Temperature {C}
  14.0238679822574,                       !- July Surface Ground Temperature {C}
  16.1157611184724,                       !- August Surface Ground Temperature {C}
  16.2934789303462,                       !- September Surface Ground Temperature {C}
  14.5920754632847,                       !- October Surface Ground Temperature {C}
  11.374036348653,                        !- November Surface Ground Temperature {C}
  7.68182621661674;                       !- December Surface Ground Temperature {C}

OS:ThermalZone,
  {fe5fd5d2-6325-48fd-a2f5-44306d130eb1}, !- Handle
  conditioned space,                      !- Name
  1,                                      !- Multiplier
  ,                                       !- Ceiling Height {m}
  692.06373070848,                        !- Volume {m3}
  ,                                       !- Floor Area {m2}
  ,                                       !- Zone Inside Convection Algorithm
  ,                                       !- Zone Outside Convection Algorithm
  ,                                       !- Zone Conditioning Equipment List Name
  {026bbd06-83c1-4ef4-a756-6cc0f7c36124}, !- Zone Air Inlet Port List
  {eb2a3ed6-c206-4b5c-84bd-7f2fa1ed4cf1}, !- Zone Air Exhaust Port List
  {073eb69d-0636-436b-8269-b129ca8c8c4a}, !- Zone Air Node Name
  {1d430846-8dad-4949-a158-38501e2a6f06}, !- Zone Return Air Port List
  ,                                       !- Primary Daylighting Control Name
  ,                                       !- Fraction of Zone Controlled by Primary Daylighting Control
  ,                                       !- Secondary Daylighting Control Name
  ,                                       !- Fraction of Zone Controlled by Secondary Daylighting Control
  ,                                       !- Illuminance Map Name
  ,                                       !- Group Rendering Name
  {f23150c8-dc2a-4052-892d-da95c453118f}, !- Thermostat Name
  No;                                     !- Use Ideal Air Loads

OS:Node,
  {16ccb0dd-c497-4b41-93b2-7e0d5b1f406f}, !- Handle
  Node 1,                                 !- Name
  {073eb69d-0636-436b-8269-b129ca8c8c4a}, !- Inlet Port
  ;                                       !- Outlet Port

OS:Connection,
  {073eb69d-0636-436b-8269-b129ca8c8c4a}, !- Handle
  {fe5fd5d2-6325-48fd-a2f5-44306d130eb1}, !- Source Object
  11,                                     !- Outlet Port
  {16ccb0dd-c497-4b41-93b2-7e0d5b1f406f}, !- Target Object
  2;                                      !- Inlet Port

OS:PortList,
  {026bbd06-83c1-4ef4-a756-6cc0f7c36124}, !- Handle
  {fe5fd5d2-6325-48fd-a2f5-44306d130eb1}, !- HVAC Component
  {5592e6f5-a488-41f3-9e5a-da17d41012d9}; !- Port 1

OS:PortList,
  {eb2a3ed6-c206-4b5c-84bd-7f2fa1ed4cf1}, !- Handle
  {fe5fd5d2-6325-48fd-a2f5-44306d130eb1}; !- HVAC Component

OS:PortList,
  {1d430846-8dad-4949-a158-38501e2a6f06}, !- Handle
  {fe5fd5d2-6325-48fd-a2f5-44306d130eb1}, !- HVAC Component
  {30485bab-803a-4b50-9e23-4c64f25114fe}; !- Port 1

OS:Sizing:Zone,
  {ddfdc846-c281-4f9e-a645-01a56305cf05}, !- Handle
  {fe5fd5d2-6325-48fd-a2f5-44306d130eb1}, !- Zone or ZoneList Name
  SupplyAirTemperature,                   !- Zone Cooling Design Supply Air Temperature Input Method
  14,                                     !- Zone Cooling Design Supply Air Temperature {C}
  11.11,                                  !- Zone Cooling Design Supply Air Temperature Difference {deltaC}
  SupplyAirTemperature,                   !- Zone Heating Design Supply Air Temperature Input Method
  40,                                     !- Zone Heating Design Supply Air Temperature {C}
  11.11,                                  !- Zone Heating Design Supply Air Temperature Difference {deltaC}
  0.0085,                                 !- Zone Cooling Design Supply Air Humidity Ratio {kg-H2O/kg-air}
  0.008,                                  !- Zone Heating Design Supply Air Humidity Ratio {kg-H2O/kg-air}
  ,                                       !- Zone Heating Sizing Factor
  ,                                       !- Zone Cooling Sizing Factor
  DesignDay,                              !- Cooling Design Air Flow Method
  ,                                       !- Cooling Design Air Flow Rate {m3/s}
  ,                                       !- Cooling Minimum Air Flow per Zone Floor Area {m3/s-m2}
  ,                                       !- Cooling Minimum Air Flow {m3/s}
  ,                                       !- Cooling Minimum Air Flow Fraction
  DesignDay,                              !- Heating Design Air Flow Method
  ,                                       !- Heating Design Air Flow Rate {m3/s}
  ,                                       !- Heating Maximum Air Flow per Zone Floor Area {m3/s-m2}
  ,                                       !- Heating Maximum Air Flow {m3/s}
  ,                                       !- Heating Maximum Air Flow Fraction
  No,                                     !- Account for Dedicated Outdoor Air System
  NeutralSupplyAir,                       !- Dedicated Outdoor Air System Control Strategy
  autosize,                               !- Dedicated Outdoor Air Low Setpoint Temperature for Design {C}
  autosize,                               !- Dedicated Outdoor Air High Setpoint Temperature for Design {C}
  Sensible Load Only No Latent Load,      !- Zone Load Sizing Method
  HumidityRatioDifference,                !- Zone Latent Cooling Design Supply Air Humidity Ratio Input Method
  ,                                       !- Zone Dehumidification Design Supply Air Humidity Ratio {kgWater/kgDryAir}
  0.005,                                  !- Zone Cooling Design Supply Air Humidity Ratio Difference {kgWater/kgDryAir}
  HumidityRatioDifference,                !- Zone Latent Heating Design Supply Air Humidity Ratio Input Method
  ,                                       !- Zone Humidification Design Supply Air Humidity Ratio {kgWater/kgDryAir}
  0.005,                                  !- Zone Humidification Design Supply Air Humidity Ratio Difference {kgWater/kgDryAir}
  ,                                       !- Zone Humidistat Dehumidification Set Point Schedule Name
  ,                                       !- Zone Humidistat Humidification Set Point Schedule Name
  ,                                       !- Design Zone Air Distribution Effectiveness in Cooling Mode
  ,                                       !- Design Zone Air Distribution Effectiveness in Heating Mode
  ,                                       !- Design Zone Secondary Recirculation Fraction {dimensionless}
  ,                                       !- Design Minimum Zone Ventilation Efficiency {dimensionless}
  Coincident;                             !- Sizing Option

OS:ZoneHVAC:EquipmentList,
  {a5d43791-085c-4880-8ac4-7a706c8c4e19}, !- Handle
  Zone HVAC Equipment List 1,             !- Name
  {fe5fd5d2-6325-48fd-a2f5-44306d130eb1}, !- Thermal Zone
  ,                                       !- Load Distribution Scheme
  {23c89550-4f71-4e8c-93a7-7ce37638dc18}, !- Zone Equipment 1
  1,                                      !- Zone Equipment Cooling Sequence 1
  1,                                      !- Zone Equipment Heating or No-Load Sequence 1
  {0e397c45-6e72-44ab-b7d2-fa159b25ae1e}, !- Zone Equipment Sequential Cooling Fraction Schedule Name 1
  {e14bd182-976e-484d-8ab4-ad552a9506fc}; !- Zone Equipment Sequential Heating Fraction Schedule Name 1

OS:AdditionalProperties,
  {05c1bb5f-76b6-4fd1-9a03-177f59815a9a}, !- Handle
  {fe5fd5d2-6325-48fd-a2f5-44306d130eb1}, !- Object Name
  ObjectType,                             !- Feature Name 1
  String,                                 !- Feature Data Type 1
  conditioned space;                      !- Feature Value 1

OS:Space,
  {0237e77e-54f9-468e-9d52-a892e9317373}, !- Handle
  conditioned space 1,                    !- Name
  ,                                       !- Space Type Name
  ,                                       !- Default Construction Set Name
  ,                                       !- Default Schedule Set Name
  ,                                       !- Direction of Relative North {deg}
  ,                                       !- X Origin {m}
  ,                                       !- Y Origin {m}
  ,                                       !- Z Origin {m}
  ,                                       !- Building Story Name
  {fe5fd5d2-6325-48fd-a2f5-44306d130eb1}, !- Thermal Zone Name
  ,                                       !- Part of Total Floor Area
  ,                                       !- Design Specification Outdoor Air Object Name
  ,                                       !- Building Unit Name
  692.06373070848;                        !- Volume {m3}

OS:Schedule:Ruleset,
  {8f23cf6e-a512-43cf-91a0-93922749f71b}, !- Handle
  heating setpoint,                       !- Name
  {ca725123-4ee9-4b17-b2a8-ab32b70b34c7}, !- Schedule Type Limits Name
  {46a1a907-dec2-4957-9503-3ad03965e1dd}; !- Default Day Schedule Name

OS:Schedule:Day,
  {46a1a907-dec2-4957-9503-3ad03965e1dd}, !- Handle
  heating setpoint default day,           !- Name
  {ca725123-4ee9-4b17-b2a8-ab32b70b34c7}, !- Schedule Type Limits Name
  ,                                       !- Interpolate to Timestep
  24,                                     !- Hour 1
  0,                                      !- Minute 1
  0;                                      !- Value Until Time 1

OS:Schedule:Rule,
  {33723c2d-85a2-4ca4-81af-bd4f6bc7b290}, !- Handle
  heating setpoint allday rule,           !- Name
  {8f23cf6e-a512-43cf-91a0-93922749f71b}, !- Schedule Ruleset Name
  0,                                      !- Rule Order
  {f4e6eff2-cdec-4acf-b598-a90b87e7543e}, !- Day Schedule Name
  Yes,                                    !- Apply Sunday
  Yes,                                    !- Apply Monday
  Yes,                                    !- Apply Tuesday
  Yes,                                    !- Apply Wednesday
  Yes,                                    !- Apply Thursday
  Yes,                                    !- Apply Friday
  Yes,                                    !- Apply Saturday
  DateRange,                              !- Date Specification Type
  1,                                      !- Start Month
  1,                                      !- Start Day
  12,                                     !- End Month
  31;                                     !- End Day

OS:Schedule:Day,
  {f4e6eff2-cdec-4acf-b598-a90b87e7543e}, !- Handle
  heating setpoint day,                   !- Name
  {ca725123-4ee9-4b17-b2a8-ab32b70b34c7}, !- Schedule Type Limits Name
  ,                                       !- Interpolate to Timestep
  24,                                     !- Hour 1
  0,                                      !- Minute 1
  20;                                     !- Value Until Time 1

OS:Schedule:Ruleset,
  {1b65508b-a4f7-4dc9-822b-446142eaff81}, !- Handle
  cooling setpoint,                       !- Name
  {ca725123-4ee9-4b17-b2a8-ab32b70b34c7}, !- Schedule Type Limits Name
  {b63315f8-4a3b-45be-9a82-0c0b1c7dbabd}; !- Default Day Schedule Name

OS:Schedule:Day,
  {b63315f8-4a3b-45be-9a82-0c0b1c7dbabd}, !- Handle
  cooling setpoint default day,           !- Name
  {ca725123-4ee9-4b17-b2a8-ab32b70b34c7}, !- Schedule Type Limits Name
  ,                                       !- Interpolate to Timestep
  24,                                     !- Hour 1
  0,                                      !- Minute 1
  0;                                      !- Value Until Time 1

OS:Schedule:Rule,
  {1709b9bc-55a5-4d4f-8598-98c954a175a5}, !- Handle
  cooling setpoint allday rule,           !- Name
  {1b65508b-a4f7-4dc9-822b-446142eaff81}, !- Schedule Ruleset Name
  0,                                      !- Rule Order
  {fb52bfaa-8846-4ae0-aa2c-1118816b9f7b}, !- Day Schedule Name
  Yes,                                    !- Apply Sunday
  Yes,                                    !- Apply Monday
  Yes,                                    !- Apply Tuesday
  Yes,                                    !- Apply Wednesday
  Yes,                                    !- Apply Thursday
  Yes,                                    !- Apply Friday
  Yes,                                    !- Apply Saturday
  DateRange,                              !- Date Specification Type
  1,                                      !- Start Month
  1,                                      !- Start Day
  12,                                     !- End Month
  31;                                     !- End Day

OS:Schedule:Day,
  {fb52bfaa-8846-4ae0-aa2c-1118816b9f7b}, !- Handle
  cooling setpoint day,                   !- Name
  {ca725123-4ee9-4b17-b2a8-ab32b70b34c7}, !- Schedule Type Limits Name
  ,                                       !- Interpolate to Timestep
  24,                                     !- Hour 1
  0,                                      !- Minute 1
  25.5555555555556;                       !- Value Until Time 1

OS:ThermostatSetpoint:DualSetpoint,
  {f23150c8-dc2a-4052-892d-da95c453118f}, !- Handle
  conditioned space temperature setpoint, !- Name
  {8f23cf6e-a512-43cf-91a0-93922749f71b}, !- Heating Setpoint Temperature Schedule Name
  {1b65508b-a4f7-4dc9-822b-446142eaff81}, !- Cooling Setpoint Temperature Schedule Name
  0;                                      !- Temperature Difference Between Cutout And Setpoint {deltaC}

OS:ScheduleTypeLimits,
  {ca725123-4ee9-4b17-b2a8-ab32b70b34c7}, !- Handle
  Temperature,                            !- Name
  ,                                       !- Lower Limit Value
  ,                                       !- Upper Limit Value
  Continuous,                             !- Numeric Type
  Temperature;                            !- Unit Type

OS:Surface,
  {3fbcb2c7-ef0f-40c5-9dae-9c8054916b8d}, !- Handle
  Roof1,                                  !- Name
  RoofCeiling,                            !- Surface Type
  {55dce614-638d-48dc-9288-94f555776661}, !- Construction Name
  {0237e77e-54f9-468e-9d52-a892e9317373}, !- Space Name
  Outdoors,                               !- Outside Boundary Condition
  ,                                       !- Outside Boundary Condition Object
  SunExposed,                             !- Sun Exposure
  WindExposed,                            !- Wind Exposure
  ,                                       !- View Factor to Ground
  ,                                       !- Number of Vertices
  -8.42346109387347, 8.42346109387347, 2.4384, !- X,Y,Z Vertex 1 {m}
  -8.42346109387347, -8.42346109387347, 2.4384, !- X,Y,Z Vertex 2 {m}
  8.42346109387347, -8.42346109387347, 2.4384, !- X,Y,Z Vertex 3 {m}
  8.42346109387347, 8.42346109387347, 2.4384; !- X,Y,Z Vertex 4 {m}

OS:AdditionalProperties,
  {fd38a095-0d4a-4b5a-949a-49035e3a0fe7}, !- Handle
  {3fbcb2c7-ef0f-40c5-9dae-9c8054916b8d}, !- Object Name
  Length,                                 !- Feature Name 1
  Double,                                 !- Feature Data Type 1
  55.27205442174192,                      !- Feature Value 1
  Width,                                  !- Feature Name 2
  Double,                                 !- Feature Data Type 2
  55.272054421741913,                     !- Feature Value 2
  Azimuth,                                !- Feature Name 3
  Integer,                                !- Feature Data Type 3
  0,                                      !- Feature Value 3
  Tilt,                                   !- Feature Name 4
  Double,                                 !- Feature Data Type 4
  0,                                      !- Feature Value 4
  SurfaceType,                            !- Feature Name 5
  String,                                 !- Feature Data Type 5
  Roof;                                   !- Feature Value 5

OS:Material,
  {ff65377b-4ea3-4be0-9058-17b187f1a788}, !- Handle
  asphalt or fiberglass shingles,         !- Name
  Rough,                                  !- Roughness
  0.00635,                                !- Thickness {m}
  0.162714,                               !- Conductivity {W/m-K}
  1121.4,                                 !- Density {kg/m3}
  1465.45,                                !- Specific Heat {J/kg-K}
  0.9,                                    !- Thermal Absorptance
  0.85,                                   !- Solar Absorptance
  0.85;                                   !- Visible Absorptance

OS:Material,
  {be7e9453-e793-46b5-b211-904a892f8943}, !- Handle
  roof stud and cavity,                   !- Name
  Rough,                                  !- Roughness
  0.0889,                                 !- Thickness {m}
  0.491900632004487,                      !- Conductivity {W/m-K}
  50.32683,                               !- Density {kg/m3}
  1063.80987585548,                       !- Specific Heat {J/kg-K}
  0.9,                                    !- Thermal Absorptance
  0.7,                                    !- Solar Absorptance
  0.7;                                    !- Visible Absorptance

OS:Material,
  {d8639e34-e431-43ae-9fe9-9dc53ed7843b}, !- Handle
  gypsum board,                           !- Name
  Rough,                                  !- Roughness
  0.00254,                                !- Thickness {m}
  0.1602906,                              !- Conductivity {W/m-K}
  801,                                    !- Density {kg/m3}
  837.4,                                  !- Specific Heat {J/kg-K}
  0.9,                                    !- Thermal Absorptance
  0.6,                                    !- Solar Absorptance
  0.6;                                    !- Visible Absorptance

OS:Construction,
  {55dce614-638d-48dc-9288-94f555776661}, !- Handle
  Roof1 construction,                     !- Name
  ,                                       !- Surface Rendering Name
  {ff65377b-4ea3-4be0-9058-17b187f1a788}, !- Layer 1
  {be7e9453-e793-46b5-b211-904a892f8943}, !- Layer 2
  {d8639e34-e431-43ae-9fe9-9dc53ed7843b}; !- Layer 3

OS:Surface,
  {7dcc6fd6-7bae-413f-a224-666edbd342b3}, !- Handle
  Wall1,                                  !- Name
  Wall,                                   !- Surface Type
  {e7451e51-4869-4536-b6ea-6342814633b4}, !- Construction Name
  {0237e77e-54f9-468e-9d52-a892e9317373}, !- Space Name
  Outdoors,                               !- Outside Boundary Condition
  ,                                       !- Outside Boundary Condition Object
  SunExposed,                             !- Sun Exposure
  WindExposed,                            !- Wind Exposure
  ,                                       !- View Factor to Ground
  ,                                       !- Number of Vertices
  -13.6265098242187, 15.6365136527044, 0, !- X,Y,Z Vertex 1 {m}
  -13.6265098242187, 15.6365136527044, 2.4384, !- X,Y,Z Vertex 2 {m}
  5.90736017578134, 15.6365136527044, 2.4384, !- X,Y,Z Vertex 3 {m}
  5.90736017578134, 15.6365136527044, 0;  !- X,Y,Z Vertex 4 {m}

OS:AdditionalProperties,
  {91588b83-2486-47d1-86b0-f723e126d13e}, !- Handle
  {7dcc6fd6-7bae-413f-a224-666edbd342b3}, !- Object Name
  Length,                                 !- Feature Name 1
  Double,                                 !- Feature Data Type 1
  64.087499999999991,                     !- Feature Value 1
  Azimuth,                                !- Feature Name 2
  Integer,                                !- Feature Data Type 2
  0,                                      !- Feature Value 2
  Tilt,                                   !- Feature Name 3
  Double,                                 !- Feature Data Type 3
  90,                                     !- Feature Value 3
  SurfaceType,                            !- Feature Name 4
  String,                                 !- Feature Data Type 4
  Wall;                                   !- Feature Value 4

OS:Material,
  {7730cb3a-6318-4b54-9f20-76c65ccc34f6}, !- Handle
  wood siding,                            !- Name
  Rough,                                  !- Roughness
  0.0254,                                 !- Thickness {m}
  0.1024175,                              !- Conductivity {W/m-K}
  544.68,                                 !- Density {kg/m3}
  1172.36,                                !- Specific Heat {J/kg-K}
  0.9,                                    !- Thermal Absorptance
  0.7,                                    !- Solar Absorptance
  0.7;                                    !- Visible Absorptance

OS:Material,
  {5f7efb4f-d8bc-4a11-86b1-fc01d30b14ba}, !- Handle
  osb sheathing 0.5 in.,                  !- Name
  Rough,                                  !- Roughness
  0.0127,                                 !- Thickness {m}
  0.1154577,                              !- Conductivity {W/m-K}
  512.64,                                 !- Density {kg/m3}
  1214.23,                                !- Specific Heat {J/kg-K}
  0.9,                                    !- Thermal Absorptance
  0.7,                                    !- Solar Absorptance
  0.7;                                    !- Visible Absorptance

OS:Material,
  {4d2554a5-7225-4646-bc37-ed1680ddd6be}, !- Handle
  wall stud and cavity,                   !- Name
  Rough,                                  !- Roughness
  0.1397,                                 !- Thickness {m}
  0.0929021674204099,                     !- Conductivity {W/m-K}
  139.0536,                               !- Density {kg/m3}
  1170.23755760369,                       !- Specific Heat {J/kg-K}
  0.9,                                    !- Thermal Absorptance
  0.7,                                    !- Solar Absorptance
  0.7;                                    !- Visible Absorptance

OS:Material,
  {3d3ad795-73ef-43ae-bbfa-50a8c9ed2552}, !- Handle
  gypsum board 1,                         !- Name
  Rough,                                  !- Roughness
  0.0127,                                 !- Thickness {m}
  0.1602906,                              !- Conductivity {W/m-K}
  801,                                    !- Density {kg/m3}
  837.4,                                  !- Specific Heat {J/kg-K}
  0.9,                                    !- Thermal Absorptance
  0.6,                                    !- Solar Absorptance
  0.6;                                    !- Visible Absorptance

OS:Construction,
  {e7451e51-4869-4536-b6ea-6342814633b4}, !- Handle
  Wall1 construction,                     !- Name
  ,                                       !- Surface Rendering Name
  {7730cb3a-6318-4b54-9f20-76c65ccc34f6}, !- Layer 1
  {5f7efb4f-d8bc-4a11-86b1-fc01d30b14ba}, !- Layer 2
  {4d2554a5-7225-4646-bc37-ed1680ddd6be}, !- Layer 3
  {3d3ad795-73ef-43ae-bbfa-50a8c9ed2552}; !- Layer 4

OS:Surface,
  {e1105ddb-47e5-4b19-a665-ef4e875967a1}, !- Handle
  Wall2,                                  !- Name
  Wall,                                   !- Surface Type
  {7b49da89-c23b-46f3-ac8a-4a9e4b252642}, !- Construction Name
  {0237e77e-54f9-468e-9d52-a892e9317373}, !- Space Name
  Outdoors,                               !- Outside Boundary Condition
  ,                                       !- Outside Boundary Condition Object
  SunExposed,                             !- Sun Exposure
  WindExposed,                            !- Wind Exposure
  ,                                       !- View Factor to Ground
  ,                                       !- Number of Vertices
  15.6365136527044, -0.538581714242879, 0, !- X,Y,Z Vertex 1 {m}
  15.6365136527044, -0.538581714242879, 2.4384, !- X,Y,Z Vertex 2 {m}
  15.6365136527044, -10.3074217142429, 2.4384, !- X,Y,Z Vertex 3 {m}
  15.6365136527044, -10.3074217142429, 0; !- X,Y,Z Vertex 4 {m}

OS:AdditionalProperties,
  {120acb69-c765-4d91-bdb9-d3c53b7be2be}, !- Handle
  {e1105ddb-47e5-4b19-a665-ef4e875967a1}, !- Object Name
  Length,                                 !- Feature Name 1
  Double,                                 !- Feature Data Type 1
  32.049999999999997,                     !- Feature Value 1
  Azimuth,                                !- Feature Name 2