
OS:Version,
  {89b7f0b8-2d65-42fa-b970-96f5c03689d8}, !- Handle
  3.9.0;                                  !- Version Identifier

OS:SimulationControl,
  {f84bf9bf-3a85-484e-ac76-8178f2e78e41}, !- Handle
  ,                                       !- Do Zone Sizing Calculation
  ,                                       !- Do System Sizing Calculation
  ,                                       !- Do Plant Sizing Calculation
  No;                                     !- Run Simulation for Sizing Periods

OS:Timestep,
  {9df416c8-b68a-4467-a613-6e9b594b1feb}, !- Handle
  1;                                      !- Number of Timesteps per Hour

OS:ShadowCalculation,
  {20b20faf-b8a5-45e0-af6f-64176b30e51c}, !- Handle
  PolygonClipping,                        !- Shading Calculation Method
  ,                                       !- Shading Calculation Update Frequency Method
  20,                                     !- Shading Calculation Update Frequency
  200,                                    !- Maximum Figures in Shadow Overlap Calculations
  ,                                       !- Polygon Clipping Algorithm
  512,                                    !- Pixel Counting Resolution
  ,                                       !- Sky Diffuse Modeling Algorithm
  No,                                     !- Output External Shading Calculation Results
  No,                                     !- Disable Self-Shading Within Shading Zone Groups
  No;                                     !- Disable Self-Shading From Shading Zone Groups to Other Zones

OS:SurfaceConvectionAlgorithm:Outside,
  {1488bc05-cd0d-4d0b-998d-493ea6095a9c}, !- Handle
  DOE-2;                                  !- Algorithm

OS:SurfaceConvectionAlgorithm:Inside,
  {bc7ad429-647a-4f03-b4cb-aa620855d77a}, !- Handle
  TARP;                                   !- Algorithm

OS:ZoneCapacitanceMultiplier:ResearchSpecial,
  {a10148b2-c6be-4b91-aec5-d6c180667f4e}, !- Handle
  7,                                      !- Temperature Capacity Multiplier
  15,                                     !- Humidity Capacity Multiplier
  ;                                       !- Carbon Dioxide Capacity Multiplier

OS:ConvergenceLimits,
  {cfd78a71-7e74-43d2-a5ce-4f7f49f1644a}, !- Handle
  0;                                      !- Minimum System Timestep {minutes}

OS:RunPeriod,
  {ba697dea-2327-4748-8bd6-9ac2d3db17be}, !- Handle
  Run Period 1,                           !- Name
  1,                                      !- Begin Month
  1,                                      !- Begin Day of Month
  12,                                     !- End Month
  31,                                     !- End Day of Month
  ,                                       !- Use Weather File Holidays and Special Days
  ,                                       !- Use Weather File Daylight Saving Period
  ,                                       !- Apply Weekend Holiday Rule
  ,                                       !- Use Weather File Rain Indicators
  ,                                       !- Use Weather File Snow Indicators
  ;                                       !- Number of Times Runperiod to be Repeated

OS:PerformancePrecisionTradeoffs,
  {ebc2aa35-6666-42b7-a0de-5fd7aea264f9}, !- Handle
  ,                                       !- Use Coil Direct Solutions
  CarrollMRT;                             !- Zone Radiant Exchange Algorithm

OS:WeatherFile,
  {e4671917-a296-420e-adb6-bedc6ce148a8}, !- Handle
  Buffalo Niagara Intl Ap,                !- City
  NY,                                     !- State Province Region
  USA,                                    !- Country
  TMY3,                                   !- Data Source
  725280,                                 !- WMO Number
  42.93,                                  !- Latitude {deg}
  -78.73,                                 !- Longitude {deg}
  -5,                                     !- Time Zone {hr}
  215,                                    !- Elevation {m}
  /Users/nmoore/github/urbanopt-example-geojson-project/example_project/weather/USA_NY_Buffalo-Greater.Buffalo.Intl.AP.725280_TMY3.epw, !- Url
  6B50E0FF,                               !- Checksum
  ,                                       !- Start Date Actual Year
  Sunday;                                 !- Start Day of Week

OS:YearDescription,
  {bd77ee74-664f-4f69-a7c7-01734007f57c}, !- Handle
  2007,                                   !- Calendar Year
  ,                                       !- Day of Week for Start Day
  ;                                       !- Is Leap Year

OS:Site,
  {9e74c39f-4e40-4352-81b2-1755e742770b}, !- Handle
  Buffalo Niagara Intl Ap_NY,             !- Name
  42.93,                                  !- Latitude {deg}
  -78.73,                                 !- Longitude {deg}
  -5,                                     !- Time Zone {hr}
  215,                                    !- Elevation {m}
  Suburbs,                                !- Terrain
  Yes;                                    !- Keep Site Location Information

OS:RunPeriodControl:DaylightSavingTime,
  {df0ff03a-6e7f-4fbb-b2be-aaaffdd2cc6a}, !- Handle
  Mar 12,                                 !- Start Date
  Nov 5;                                  !- End Date

OS:Site:GroundTemperature:Shallow,
  {46e824df-d594-4efe-aa1e-f37ac762a2c0}, !- Handle
  4.30207395723828,                       !- January Surface Ground Temperature {C}
  2.29327249652502,                       !- February Surface Ground Temperature {C}
  2.13240047156047,                       !- March Surface Ground Temperature {C}
  3.08567940719286,                       !- April Surface Ground Temperature {C}
  6.91256312497526,                       !- May Surface Ground Temperature {C}
  10.7216195949507,                       !- June Surface Ground Temperature {C}
  14.0238679822574,                       !- July Surface Ground Temperature {C}
  16.1157611184724,                       !- August Surface Ground Temperature {C}
  16.2934789303462,                       !- September Surface Ground Temperature {C}
  14.5920754632847,                       !- October Surface Ground Temperature {C}
  11.374036348653,                        !- November Surface Ground Temperature {C}
  7.68182621661674;                       !- December Surface Ground Temperature {C}

OS:ThermalZone,
  {3c2b1ee6-057f-4dd5-b0da-77f460f08364}, !- Handle
  conditioned space,                      !- Name
  1,                                      !- Multiplier
  ,                                       !- Ceiling Height {m}
  346.03186535424,                        !- Volume {m3}
  ,                                       !- Floor Area {m2}
  ,                                       !- Zone Inside Convection Algorithm
  ,                                       !- Zone Outside Convection Algorithm
  ,                                       !- Zone Conditioning Equipment List Name
  {d47eb30b-bfdf-4a4e-b8ee-ccfaff992bfc}, !- Zone Air Inlet Port List
  {89397e25-f2e7-471d-877c-eb85c822f13f}, !- Zone Air Exhaust Port List
  {568147cc-3077-4b84-b35b-e4c8ab575b96}, !- Zone Air Node Name
  {d99a96ba-9c98-4c10-9cea-2a17d69ec29d}, !- Zone Return Air Port List
  ,                                       !- Primary Daylighting Control Name
  ,                                       !- Fraction of Zone Controlled by Primary Daylighting Control
  ,                                       !- Secondary Daylighting Control Name
  ,                                       !- Fraction of Zone Controlled by Secondary Daylighting Control
  ,                                       !- Illuminance Map Name
  ,                                       !- Group Rendering Name
  {e265ca40-2a37-414f-9371-9da1c0ac93bb}, !- Thermostat Name
  No;                                     !- Use Ideal Air Loads

OS:Node,
  {f549f412-1f42-4ed2-b0c2-150da2563fc7}, !- Handle
  Node 1,                                 !- Name
  {568147cc-3077-4b84-b35b-e4c8ab575b96}, !- Inlet Port
  ;                                       !- Outlet Port

OS:Connection,
  {568147cc-3077-4b84-b35b-e4c8ab575b96}, !- Handle
  {3c2b1ee6-057f-4dd5-b0da-77f460f08364}, !- Source Object
  11,                                     !- Outlet Port
  {f549f412-1f42-4ed2-b0c2-150da2563fc7}, !- Target Object
  2;                                      !- Inlet Port

OS:PortList,
  {d47eb30b-bfdf-4a4e-b8ee-ccfaff992bfc}, !- Handle
  {3c2b1ee6-057f-4dd5-b0da-77f460f08364}, !- HVAC Component
  {b31705c2-31ec-4e3f-8d79-fe94dca0b28a}; !- Port 1

OS:PortList,
  {89397e25-f2e7-471d-877c-eb85c822f13f}, !- Handle
  {3c2b1ee6-057f-4dd5-b0da-77f460f08364}; !- HVAC Component

OS:PortList,
  {d99a96ba-9c98-4c10-9cea-2a17d69ec29d}, !- Handle
  {3c2b1ee6-057f-4dd5-b0da-77f460f08364}, !- HVAC Component
  {db5153ad-a86c-41c8-8b21-045936b2fe64}; !- Port 1

OS:Sizing:Zone,
  {68acb7d8-3745-4912-9324-100863d12bf6}, !- Handle
  {3c2b1ee6-057f-4dd5-b0da-77f460f08364}, !- Zone or ZoneList Name
  SupplyAirTemperature,                   !- Zone Cooling Design Supply Air Temperature Input Method
  14,                                     !- Zone Cooling Design Supply Air Temperature {C}
  11.11,                                  !- Zone Cooling Design Supply Air Temperature Difference {deltaC}
  SupplyAirTemperature,                   !- Zone Heating Design Supply Air Temperature Input Method
  40,                                     !- Zone Heating Design Supply Air Temperature {C}
  11.11,                                  !- Zone Heating Design Supply Air Temperature Difference {deltaC}
  0.0085,                                 !- Zone Cooling Design Supply Air Humidity Ratio {kg-H2O/kg-air}
  0.008,                                  !- Zone Heating Design Supply Air Humidity Ratio {kg-H2O/kg-air}
  ,                                       !- Zone Heating Sizing Factor
  ,                                       !- Zone Cooling Sizing Factor
  DesignDay,                              !- Cooling Design Air Flow Method
  ,                                       !- Cooling Design Air Flow Rate {m3/s}
  ,                                       !- Cooling Minimum Air Flow per Zone Floor Area {m3/s-m2}
  ,                                       !- Cooling Minimum Air Flow {m3/s}
  ,                                       !- Cooling Minimum Air Flow Fraction
  DesignDay,                              !- Heating Design Air Flow Method
  ,                                       !- Heating Design Air Flow Rate {m3/s}
  ,                                       !- Heating Maximum Air Flow per Zone Floor Area {m3/s-m2}
  ,                                       !- Heating Maximum Air Flow {m3/s}
  ,                                       !- Heating Maximum Air Flow Fraction
  No,                                     !- Account for Dedicated Outdoor Air System
  NeutralSupplyAir,                       !- Dedicated Outdoor Air System Control Strategy
  autosize,                               !- Dedicated Outdoor Air Low Setpoint Temperature for Design {C}
  autosize,                               !- Dedicated Outdoor Air High Setpoint Temperature for Design {C}
  Sensible Load Only No Latent Load,      !- Zone Load Sizing Method
  HumidityRatioDifference,                !- Zone Latent Cooling Design Supply Air Humidity Ratio Input Method
  ,                                       !- Zone Dehumidification Design Supply Air Humidity Ratio {kgWater/kgDryAir}
  0.005,                                  !- Zone Cooling Design Supply Air Humidity Ratio Difference {kgWater/kgDryAir}
  HumidityRatioDifference,                !- Zone Latent Heating Design Supply Air Humidity Ratio Input Method
  ,                                       !- Zone Humidification Design Supply Air Humidity Ratio {kgWater/kgDryAir}
  0.005,                                  !- Zone Humidification Design Supply Air Humidity Ratio Difference {kgWater/kgDryAir}
  ,                                       !- Zone Humidistat Dehumidification Set Point Schedule Name
  ,                                       !- Zone Humidistat Humidification Set Point Schedule Name
  ,                                       !- Design Zone Air Distribution Effectiveness in Cooling Mode
  ,                                       !- Design Zone Air Distribution Effectiveness in Heating Mode
  ,                                       !- Design Zone Secondary Recirculation Fraction {dimensionless}
  ,                                       !- Design Minimum Zone Ventilation Efficiency {dimensionless}
  Coincident;                             !- Sizing Option

OS:ZoneHVAC:EquipmentList,
  {a14731a1-f24f-45a8-b3dd-048e925e1267}, !- Handle
  Zone HVAC Equipment List 1,             !- Name
  {3c2b1ee6-057f-4dd5-b0da-77f460f08364}, !- Thermal Zone
  ,                                       !- Load Distribution Scheme
  {d9d8063c-d480-47b1-a2df-5a1499c4615b}, !- Zone Equipment 1
  1,                                      !- Zone Equipment Cooling Sequence 1
  1,                                      !- Zone Equipment Heating or No-Load Sequence 1
  {16821274-f19c-47df-9c9f-f7390cff5cd9}, !- Zone Equipment Sequential Cooling Fraction Schedule Name 1
  {2b35f74a-078d-41f0-9660-3a5444648530}; !- Zone Equipment Sequential Heating Fraction Schedule Name 1

OS:AdditionalProperties,
  {2f676d9f-095d-4e23-97b9-5ac3dbd46cef}, !- Handle
  {3c2b1ee6-057f-4dd5-b0da-77f460f08364}, !- Object Name
  ObjectType,                             !- Feature Name 1
  String,                                 !- Feature Data Type 1
  conditioned space;                      !- Feature Value 1

OS:Space,
  {e6a6c5d5-f634-44af-96d6-7a552612d9ae}, !- Handle
  conditioned space 1,                    !- Name
  ,                                       !- Space Type Name
  ,                                       !- Default Construction Set Name
  ,                                       !- Default Schedule Set Name
  ,                                       !- Direction of Relative North {deg}
  ,                                       !- X Origin {m}
  ,                                       !- Y Origin {m}
  ,                                       !- Z Origin {m}
  ,                                       !- Building Story Name
  {3c2b1ee6-057f-4dd5-b0da-77f460f08364}, !- Thermal Zone Name
  ,                                       !- Part of Total Floor Area
  ,                                       !- Design Specification Outdoor Air Object Name
  ,                                       !- Building Unit Name
  346.03186535424;                        !- Volume {m3}

OS:Schedule:Ruleset,
  {83bd63d4-64a0-4ca8-8dc7-b63460919b37}, !- Handle
  heating setpoint,                       !- Name
  {abcafa76-54c2-4da3-8587-bbc15260c673}, !- Schedule Type Limits Name
  {589beea5-4c36-49ad-9c13-278eaeff50bf}; !- Default Day Schedule Name

OS:Schedule:Day,
  {589beea5-4c36-49ad-9c13-278eaeff50bf}, !- Handle
  heating setpoint default day,           !- Name
  {abcafa76-54c2-4da3-8587-bbc15260c673}, !- Schedule Type Limits Name
  ,                                       !- Interpolate to Timestep
  24,                                     !- Hour 1
  0,                                      !- Minute 1
  0;                                      !- Value Until Time 1

OS:Schedule:Rule,
  {77aaffb4-ca4f-4c2d-a938-b4afedb46390}, !- Handle
  heating setpoint allday rule,           !- Name
  {83bd63d4-64a0-4ca8-8dc7-b63460919b37}, !- Schedule Ruleset Name
  0,                                      !- Rule Order
  {8d1d2c70-32c4-435f-9478-096348ff5e4f}, !- Day Schedule Name
  Yes,                                    !- Apply Sunday
  Yes,                                    !- Apply Monday
  Yes,                                    !- Apply Tuesday
  Yes,                                    !- Apply Wednesday
  Yes,                                    !- Apply Thursday
  Yes,                                    !- Apply Friday
  Yes,                                    !- Apply Saturday
  DateRange,                              !- Date Specification Type
  1,                                      !- Start Month
  1,                                      !- Start Day
  12,                                     !- End Month
  31;                                     !- End Day

OS:Schedule:Day,
  {8d1d2c70-32c4-435f-9478-096348ff5e4f}, !- Handle
  heating setpoint day,                   !- Name
  {abcafa76-54c2-4da3-8587-bbc15260c673}, !- Schedule Type Limits Name
  ,                                       !- Interpolate to Timestep
  24,                                     !- Hour 1
  0,                                      !- Minute 1
  20;                                     !- Value Until Time 1

OS:Schedule:Ruleset,
  {14bdec43-1840-41d5-bed8-55a5fe3d7533}, !- Handle
  cooling setpoint,                       !- Name
  {abcafa76-54c2-4da3-8587-bbc15260c673}, !- Schedule Type Limits Name
  {b3cdcf96-b2e0-4444-a4a3-c6318e06e836}; !- Default Day Schedule Name

OS:Schedule:Day,
  {b3cdcf96-b2e0-4444-a4a3-c6318e06e836}, !- Handle
  cooling setpoint default day,           !- Name
  {abcafa76-54c2-4da3-8587-bbc15260c673}, !- Schedule Type Limits Name
  ,                                       !- Interpolate to Timestep
  24,                                     !- Hour 1
  0,                                      !- Minute 1
  0;                                      !- Value Until Time 1

OS:Schedule:Rule,
  {102a0465-db78-4565-a685-c4fccd56585a}, !- Handle
  cooling setpoint allday rule,           !- Name
  {14bdec43-1840-41d5-bed8-55a5fe3d7533}, !- Schedule Ruleset Name
  0,                                      !- Rule Order
  {180ee8f5-f7cb-4951-b8d5-f89dbb4c3714}, !- Day Schedule Name
  Yes,                                    !- Apply Sunday
  Yes,                                    !- Apply Monday
  Yes,                                    !- Apply Tuesday
  Yes,                                    !- Apply Wednesday
  Yes,                                    !- Apply Thursday
  Yes,                                    !- Apply Friday
  Yes,                                    !- Apply Saturday
  DateRange,                              !- Date Specification Type
  1,                                      !- Start Month
  1,                                      !- Start Day
  12,                                     !- End Month
  31;                                     !- End Day

OS:Schedule:Day,
  {180ee8f5-f7cb-4951-b8d5-f89dbb4c3714}, !- Handle
  cooling setpoint day,                   !- Name
  {abcafa76-54c2-4da3-8587-bbc15260c673}, !- Schedule Type Limits Name
  ,                                       !- Interpolate to Timestep
  24,                                     !- Hour 1
  0,                                      !- Minute 1
  25.5555555555556;                       !- Value Until Time 1

OS:ThermostatSetpoint:DualSetpoint,
  {e265ca40-2a37-414f-9371-9da1c0ac93bb}, !- Handle
  conditioned space temperature setpoint, !- Name
  {83bd63d4-64a0-4ca8-8dc7-b63460919b37}, !- Heating Setpoint Temperature Schedule Name
  {14bdec43-1840-41d5-bed8-55a5fe3d7533}, !- Cooling Setpoint Temperature Schedule Name
  0;                                      !- Temperature Difference Between Cutout And Setpoint {deltaC}

OS:ScheduleTypeLimits,
  {abcafa76-54c2-4da3-8587-bbc15260c673}, !- Handle
  Temperature,                            !- Name
  ,                                       !- Lower Limit Value
  ,                                       !- Upper Limit Value
  Continuous,                             !- Numeric Type
  Temperature;                            !- Unit Type

OS:Surface,
  {33d6ec48-ba91-4c7b-b54d-0ca3156f5666}, !- Handle
  Wall1,                                  !- Name
  Wall,                                   !- Surface Type
  {6c20aa05-9183-4596-9921-9409d3b62ab2}, !- Construction Name
  {e6a6c5d5-f634-44af-96d6-7a552612d9ae}, !- Space Name
  Outdoors,                               !- Outside Boundary Condition
  ,                                       !- Outside Boundary Condition Object
  SunExposed,                             !- Sun Exposure
  WindExposed,                            !- Wind Exposure
  ,                                       !- View Factor to Ground
  ,                                       !- Number of Vertices
  -4.95193308575712, 6.96193691424288, 0.6096, !- X,Y,Z Vertex 1 {m}
  -4.95193308575712, 6.96193691424288, 3.048, !- X,Y,Z Vertex 2 {m}
  6.96193691424288, 6.96193691424288, 3.048, !- X,Y,Z Vertex 3 {m}
  6.96193691424288, 6.96193691424288, 0.6096; !- X,Y,Z Vertex 4 {m}

OS:AdditionalProperties,
  {50ba5d37-c7f7-4d2b-ade5-73b18c644b97}, !- Handle
  {33d6ec48-ba91-4c7b-b54d-0ca3156f5666}, !- Object Name
  Length,                                 !- Feature Name 1
  Double,                                 !- Feature Data Type 1
  39.087499999999999,                     !- Feature Value 1
  Azimuth,                                !- Feature Name 2
  Integer,                                !- Feature Data Type 2
  0,                                      !- Feature Value 2
  Tilt,                                   !- Feature Name 3
  Double,                                 !- Feature Data Type 3
  90,                                     !- Feature Value 3
  SurfaceType,                            !- Feature Name 4
  String,                                 !- Feature Data Type 4
  Wall;                                   !- Feature Value 4

OS:Material,
  {0bebb992-bc1c-4dea-af7b-e30495729b43}, !- Handle
  wood siding,                            !- Name
  Rough,                                  !- Roughness
  0.0254,                                 !- Thickness {m}
  0.1024175,                              !- Conductivity {W/m-K}
  544.68,                                 !- Density {kg/m3}
  1172.36,                                !- Specific Heat {J/kg-K}
  0.9,                                    !- Thermal Absorptance
  0.7,                                    !- Solar Absorptance
  0.7;                                    !- Visible Absorptance

OS:Material,
  {55a4ad7d-fe34-48fa-9eca-44156620a534}, !- Handle
  osb sheathing 0.5 in.,                  !- Name
  Rough,                                  !- Roughness
  0.0127,                                 !- Thickness {m}
  0.1154577,                              !- Conductivity {W/m-K}
  512.64,                                 !- Density {kg/m3}
  1214.23,                                !- Specific Heat {J/kg-K}
  0.9,                                    !- Thermal Absorptance
  0.7,                                    !- Solar Absorptance
  0.7;                                    !- Visible Absorptance

OS:Material,
  {a7b6ab0b-d597-4017-97a1-163bef4a6a7d}, !- Handle
  wall stud and cavity,                   !- Name
  Rough,                                  !- Roughness
  0.1397,                                 !- Thickness {m}
  0.0929021674204099,                     !- Conductivity {W/m-K}
  139.0536,                               !- Density {kg/m3}
  1170.23755760369,                       !- Specific Heat {J/kg-K}
  0.9,                                    !- Thermal Absorptance
  0.7,                                    !- Solar Absorptance
  0.7;                                    !- Visible Absorptance

OS:Material,
  {ec22b61e-dcc9-4ceb-a9eb-dc2345e7e8fb}, !- Handle
  gypsum board,                           !- Name
  Rough,                                  !- Roughness
  0.0127,                                 !- Thickness {m}
  0.1602906,                              !- Conductivity {W/m-K}
  801,                                    !- Density {kg/m3}
  837.4,                                  !- Specific Heat {J/kg-K}
  0.9,                                    !- Thermal Absorptance
  0.6,                                    !- Solar Absorptance
  0.6;                                    !- Visible Absorptance

OS:Construction,
  {6c20aa05-9183-4596-9921-9409d3b62ab2}, !- Handle
  Wall1 construction,                     !- Name
  ,                                       !- Surface Rendering Name
  {0bebb992-bc1c-4dea-af7b-e30495729b43}, !- Layer 1
  {55a4ad7d-fe34-48fa-9eca-44156620a534}, !- Layer 2
  {a7b6ab0b-d597-4017-97a1-163bef4a6a7d}, !- Layer 3
  {ec22b61e-dcc9-4ceb-a9eb-dc2345e7e8fb}; !- Layer 4

OS:Surface,
  {e64b3c14-4ad0-4f1e-a0d7-7d6db98c3696}, !- Handle
  Wall2,                                  !- Name
  Wall,                                   !- Surface Type
  {882ad68b-00ff-4c25-8ac3-cae0736f8ece}, !- Construction Name
  {e6a6c5d5-f634-44af-96d6-7a552612d9ae}, !- Space Name
  Outdoors,                               !- Outside Boundary Condition
  ,                                       !- Outside Boundary Condition Object
  SunExposed,                             !- Sun Exposure
  WindExposed,                            !- Wind Exposure
  ,                                       !- View Factor to Ground
  ,                                       !- Number of Vertices
  6.96193691424288, -1.00690691424288, 0.6096, !- X,Y,Z Vertex 1 {m}
  6.96193691424288, -1.00690691424288, 3.048, !- X,Y,Z Vertex 2 {m}
  6.96193691424288, -6.96193691424288, 3.048, !- X,Y,Z Vertex 3 {m}
  6.96193691424288, -6.96193691424288, 0.6096; !- X,Y,Z Vertex 4 {m}

OS:AdditionalProperties,
  {85216139-9ad1-4fcb-b48b-6ee966940e91}, !- Handle
  {e64b3c14-4ad0-4f1e-a0d7-7d6db98c3696}, !- Object Name
  Length,                                 !- Feature Name 1
  Double,                                 !- Feature Data Type 1
  19.537500000000001,                     !- Feature Value 1
  Azimuth,                                !- Feature Name 2
  Integer,                                !- Feature Data Type 2
  90,                                     !- Feature Value 2
  Tilt,                                   !- Feature Name 3
  Double,                                 !- Feature Data Type 3
  90,                                     !- Feature Value 3
  SurfaceType,                            !- Feature Name 4
  String,                                 !- Feature Data Type 4
  Wall;                                   !- Feature Value 4

OS:Construction,
  {882ad68b-00ff-4c25-8ac3-cae0736f8ece}, !- Handle
  Wall2 construction,                     !- Name
  ,                                       !- Surface Rendering Name
  {0bebb992-bc1c-4dea-af7b-e30495729b43}, !- Layer 1
  {55a4ad7d-fe34-48fa-9eca-44156620a534}, !- Layer 2
  {a7b6ab0b-d597-4017-97a1-163bef4a6a7d}, !- Layer 3
  {ec22b61e-dcc9-4ceb-a9eb-dc2345e7e8fb}; !- Layer 4

OS:Surface,
  {809f1734-75a7-451a-9e5c-41c026241605}, !- Handle
  Wall3,                                  !- Name
  Wall,                                   !- Surface Type
  {5e8d7dbd-1559-42aa-bdee-97982cce479a}, !- Construction Name
  {e6a6c5d5-f634-44af-96d6-7a552612d9ae}, !- Space Name
  Outdoors,                               !- Outside Boundary Condition
  ,                                       !- Outside Boundary Condition Object
  SunExposed,                             !- Sun Exposure
  WindExposed,                            !- Wind Exposure
  ,                                       !- View Factor to Ground
  ,                                       !- Number of Vertices
  6.03290651424288, -6.96193691424288, 0.6096, !- X,Y,Z Vertex 1 {m}
  6.03290651424288, -6.96193691424288, 3.048, !- X,Y,Z Vertex 2 {m}
  -5.11896348575712, -6.96193691424288, 3.048, !- X,Y,Z Vertex 3 {m}
  -5.11896348575712, -6.96193691424288, 0.6096; !- X,Y,Z Vertex 4 {m}

OS:AdditionalProperties,
  {384bf969-a961-42e7-9371-8e6c56478927}, !- Handle
  {809f1734-75a7-451a-9e5c-41c026241605}, !- Object Name
  Length,                                 !- Feature Name 1
  Double,                                 !- Feature Data Type 1
  36.587499999999999,                     !- Feature Value 1
  Azimuth,                                !- Feature Name 2
  Integer,                                !- Feature Data Type 2
  180,                                    !- Feature Value 2
  Tilt,                                   !- Feature Name 3
  Double,                                 !- Feature Data Type 3
  90,                                     !- Feature Value 3
  SurfaceType,                            !- Feature Name 4
  String,                                 !- Feature Data Type 4
  Wall;                                   !- Feature Value 4

OS:Construction,
  {5e8d7dbd-1559-42aa-bdee-97982cce479a}, !- Handle
  Wall3 construction,                     !- Name
  ,                                       !- Surface Rendering Name
  {0bebb992-bc1c-4dea-af7b-e30495729b43}, !- Layer 1
  {55a4ad7d-fe34-48fa-9eca-44156620a534}, !- Layer 2
  {a7b6ab0b-d597-4017-97a1-163bef4a6a7d}, !- Layer 3
  {ec22b61e-dcc9-4ceb-a9eb-dc2345e7e8fb}; !- Layer 4

OS:Surface,
  {12f440de-ba94-45ca-93b4-b8b6a9a60c1d}, !- Handle
  Wall4,                                  !- Name
  Wall,                                   !- Surface Type
  {bb837ff6-0af6-4ec8-b63d-33ad7d7224c9}, !- Construction Name
  {e6a6c5d5-f634-44af-96d6-7a552612d9ae}, !- Space Name
  Outdoors,                               !- Outside Boundary Condition
  ,                                       !- Outside Boundary Condition Object
  SunExposed,                             !- Sun Exposure
  WindExposed,                            !- Wind Exposure
  ,                                       !- View Factor to Ground
  ,                                       !- Number of Vertices
  -6.96193691424288, 1.00690691424288, 0.6096, !- X,Y,Z Vertex 1 {m}
  -6.96193691424288, 1.00690691424288, 3.048, !- X,Y,Z Vertex 2 {m}
  -6.96193691424288, 6.96193691424288, 3.048, !- X,Y,Z Vertex 3 {m}
  -6.96193691424288, 6.96193691424288, 0.6096; !- X,Y,Z Vertex 4 {m}

OS:AdditionalProperties,
  {0b6726cc-a796-4ced-8d6e-c5ae77c01be7}, !- Handle
  {12f440de-ba94-45ca-93b4-b8b6a9a60c1d}, !- Object Name