
OS:Version,
  {e65f0dec-9073-47a8-a07d-cdb0a5dc59c6}, !- Handle
  3.10.0;                                 !- Version Identifier

OS:SimulationControl,
  {3b1d2256-15ae-467c-96e1-7c8db585644c}, !- Handle
  ,                                       !- Do Zone Sizing Calculation
  ,                                       !- Do System Sizing Calculation
  ,                                       !- Do Plant Sizing Calculation
  No;                                     !- Run Simulation for Sizing Periods

OS:Timestep,
  {d31c7d65-08bb-4323-a81f-f718fda145aa}, !- Handle
  1;                                      !- Number of Timesteps per Hour

OS:ShadowCalculation,
  {9432e910-d6bf-4e81-9907-db5cf44eacc9}, !- Handle
  PolygonClipping,                        !- Shading Calculation Method
  ,                                       !- Shading Calculation Update Frequency Method
  20,                                     !- Shading Calculation Update Frequency
  200,                                    !- Maximum Figures in Shadow Overlap Calculations
  ,                                       !- Polygon Clipping Algorithm
  512,                                    !- Pixel Counting Resolution
  ,                                       !- Sky Diffuse Modeling Algorithm
  No,                                     !- Output External Shading Calculation Results
  No,                                     !- Disable Self-Shading Within Shading Zone Groups
  No;                                     !- Disable Self-Shading From Shading Zone Groups to Other Zones

OS:SurfaceConvectionAlgorithm:Outside,
  {ed7a26d1-93fc-4304-a52c-fa364d13d010}, !- Handle
  DOE-2;                                  !- Algorithm

OS:SurfaceConvectionAlgorithm:Inside,
  {f35bede3-2f21-4e3b-9423-63975c40273f}, !- Handle
  TARP;                                   !- Algorithm

OS:ZoneCapacitanceMultiplier:ResearchSpecial,
  {a1eff150-0498-40bc-87dd-9a31981c90d4}, !- Handle
  7,                                      !- Temperature Capacity Multiplier
  15,                                     !- Humidity Capacity Multiplier
  ;                                       !- Carbon Dioxide Capacity Multiplier

OS:ConvergenceLimits,
  {972038b1-728e-47d3-9b3e-ebd9cde1f492}, !- Handle
  0;                                      !- Minimum System Timestep {minutes}

OS:RunPeriod,
  {2597373d-274c-4a78-8400-8283e2766f31}, !- Handle
  Run Period 1,                           !- Name
  1,                                      !- Begin Month
  1,                                      !- Begin Day of Month
  12,                                     !- End Month
  31,                                     !- End Day of Month
  ,                                       !- Use Weather File Holidays and Special Days
  ,                                       !- Use Weather File Daylight Saving Period
  ,                                       !- Apply Weekend Holiday Rule
  ,                                       !- Use Weather File Rain Indicators
  ,                                       !- Use Weather File Snow Indicators
  ;                                       !- Number of Times Runperiod to be Repeated

OS:PerformancePrecisionTradeoffs,
  {91e6ff23-5e43-4b94-bd71-b238eebd041f}, !- Handle
  ,                                       !- Use Coil Direct Solutions
  CarrollMRT;                             !- Zone Radiant Exchange Algorithm

OS:WeatherFile,
  {8db7f318-034b-41a3-8c28-e85475f50d3b}, !- Handle
  Buffalo Niagara Intl Ap,                !- City
  NY,                                     !- State Province Region
  USA,                                    !- Country
  TMY3,                                   !- Data Source
  725280,                                 !- WMO Number
  42.93,                                  !- Latitude {deg}
  -78.73,                                 !- Longitude {deg}
  -5,                                     !- Time Zone {hr}
  215,                                    !- Elevation {m}
  /Users/nmoore/github/urbanopt-example-geojson-project/example_project/weather/USA_NY_Buffalo-Greater.Buffalo.Intl.AP.725280_TMY3.epw, !- Url
  6B50E0FF,                               !- Checksum
  ,                                       !- Start Date Actual Year
  Sunday;                                 !- Start Day of Week

OS:YearDescription,
  {f1801a87-9d76-44b1-b77c-ddf0a06aa17e}, !- Handle
  2007,                                   !- Calendar Year
  ,                                       !- Day of Week for Start Day
  ;                                       !- Is Leap Year

OS:Site,
  {9a9b692d-5584-46ee-bbc6-dfa61cafcb68}, !- Handle
  Buffalo Niagara Intl Ap_NY,             !- Name
  42.93,                                  !- Latitude {deg}
  -78.73,                                 !- Longitude {deg}
  -5,                                     !- Time Zone {hr}
  215,                                    !- Elevation {m}
  Suburbs,                                !- Terrain
  Yes;                                    !- Keep Site Location Information

OS:RunPeriodControl:DaylightSavingTime,
  {f911e5d7-91ca-4ab7-bed4-6b3c955e893f}, !- Handle
  Mar 12,                                 !- Start Date
  Nov 5;                                  !- End Date

OS:Site:GroundTemperature:Shallow,
  {67f2f195-4f48-4ba3-9789-77341f735f0d}, !- Handle
  4.30207395723828,                       !- January Surface Ground Temperature {C}
  2.29327249652502,                       !- February Surface Ground Temperature {C}
  2.13240047156047,                       !- March Surface Ground Temperature {C}
  3.08567940719286,                       !- April Surface Ground Temperature {C}
  6.91256312497526,                       !- May Surface Ground Temperature {C}
  10.7216195949507,                       !- June Surface Ground Temperature {C}
  14.0238679822574,                       !- July Surface Ground Temperature {C}
  16.1157611184724,                       !- August Surface Ground Temperature {C}
  16.2934789303462,                       !- September Surface Ground Temperature {C}
  14.5920754632847,                       !- October Surface Ground Temperature {C}
  11.374036348653,                        !- November Surface Ground Temperature {C}
  7.68182621661674;                       !- December Surface Ground Temperature {C}

OS:ThermalZone,
  {7cbee8c0-f3db-4e7a-8919-e2f7a7d6029c}, !- Handle
  conditioned space,                      !- Name
  1,                                      !- Multiplier
  ,                                       !- Ceiling Height {m}
  346.03186535424,                        !- Volume {m3}
  ,                                       !- Floor Area {m2}
  ,                                       !- Zone Inside Convection Algorithm
  ,                                       !- Zone Outside Convection Algorithm
  ,                                       !- Zone Conditioning Equipment List Name
  {e6989b6c-6931-42f7-b067-c405be63bceb}, !- Zone Air Inlet Port List
  {2e2a2210-1224-4bcb-8bca-f5f8266794ad}, !- Zone Air Exhaust Port List
  {3fa43e04-a2b7-4c62-a749-08e1a1399050}, !- Zone Air Node Name
  {fd010aae-339f-4ccf-81a8-c16ac9993ad8}, !- Zone Return Air Port List
  ,                                       !- Primary Daylighting Control Name
  ,                                       !- Fraction of Zone Controlled by Primary Daylighting Control
  ,                                       !- Secondary Daylighting Control Name
  ,                                       !- Fraction of Zone Controlled by Secondary Daylighting Control
  ,                                       !- Illuminance Map Name
  ,                                       !- Group Rendering Name
  {16c7c000-26fb-4f3e-bbcd-8e833d907cbc}, !- Thermostat Name
  No;                                     !- Use Ideal Air Loads

OS:Node,
  {115d7e4a-e376-4df4-98ae-8f66d0e7401d}, !- Handle
  Node 1,                                 !- Name
  {3fa43e04-a2b7-4c62-a749-08e1a1399050}, !- Inlet Port
  ;                                       !- Outlet Port

OS:Connection,
  {3fa43e04-a2b7-4c62-a749-08e1a1399050}, !- Handle
  {7cbee8c0-f3db-4e7a-8919-e2f7a7d6029c}, !- Source Object
  11,                                     !- Outlet Port
  {115d7e4a-e376-4df4-98ae-8f66d0e7401d}, !- Target Object
  2;                                      !- Inlet Port

OS:PortList,
  {e6989b6c-6931-42f7-b067-c405be63bceb}, !- Handle
  {7cbee8c0-f3db-4e7a-8919-e2f7a7d6029c}, !- HVAC Component
  {68974b96-b16b-4d48-a972-209b707a4f80}; !- Port 1

OS:PortList,
  {2e2a2210-1224-4bcb-8bca-f5f8266794ad}, !- Handle
  {7cbee8c0-f3db-4e7a-8919-e2f7a7d6029c}; !- HVAC Component

OS:PortList,
  {fd010aae-339f-4ccf-81a8-c16ac9993ad8}, !- Handle
  {7cbee8c0-f3db-4e7a-8919-e2f7a7d6029c}, !- HVAC Component
  {13cac4b2-6a88-4d5f-a9b1-020d969790c5}; !- Port 1

OS:Sizing:Zone,
  {6e9646ab-bea6-4066-aaf2-0fa12959d61d}, !- Handle
  {7cbee8c0-f3db-4e7a-8919-e2f7a7d6029c}, !- Zone or ZoneList Name
  SupplyAirTemperature,                   !- Zone Cooling Design Supply Air Temperature Input Method
  14,                                     !- Zone Cooling Design Supply Air Temperature {C}
  11.11,                                  !- Zone Cooling Design Supply Air Temperature Difference {deltaC}
  SupplyAirTemperature,                   !- Zone Heating Design Supply Air Temperature Input Method
  40,                                     !- Zone Heating Design Supply Air Temperature {C}
  11.11,                                  !- Zone Heating Design Supply Air Temperature Difference {deltaC}
  0.0085,                                 !- Zone Cooling Design Supply Air Humidity Ratio {kg-H2O/kg-air}
  0.008,                                  !- Zone Heating Design Supply Air Humidity Ratio {kg-H2O/kg-air}
  ,                                       !- Zone Heating Sizing Factor
  ,                                       !- Zone Cooling Sizing Factor
  DesignDay,                              !- Cooling Design Air Flow Method
  ,                                       !- Cooling Design Air Flow Rate {m3/s}
  ,                                       !- Cooling Minimum Air Flow per Zone Floor Area {m3/s-m2}
  ,                                       !- Cooling Minimum Air Flow {m3/s}
  ,                                       !- Cooling Minimum Air Flow Fraction
  DesignDay,                              !- Heating Design Air Flow Method
  ,                                       !- Heating Design Air Flow Rate {m3/s}
  ,                                       !- Heating Maximum Air Flow per Zone Floor Area {m3/s-m2}
  ,                                       !- Heating Maximum Air Flow {m3/s}
  ,                                       !- Heating Maximum Air Flow Fraction
  No,                                     !- Account for Dedicated Outdoor Air System
  NeutralSupplyAir,                       !- Dedicated Outdoor Air System Control Strategy
  autosize,                               !- Dedicated Outdoor Air Low Setpoint Temperature for Design {C}
  autosize,                               !- Dedicated Outdoor Air High Setpoint Temperature for Design {C}
  Sensible Load Only No Latent Load,      !- Zone Load Sizing Method
  HumidityRatioDifference,                !- Zone Latent Cooling Design Supply Air Humidity Ratio Input Method
  ,                                       !- Zone Dehumidification Design Supply Air Humidity Ratio {kgWater/kgDryAir}
  0.005,                                  !- Zone Cooling Design Supply Air Humidity Ratio Difference {kgWater/kgDryAir}
  HumidityRatioDifference,                !- Zone Latent Heating Design Supply Air Humidity Ratio Input Method
  ,                                       !- Zone Humidification Design Supply Air Humidity Ratio {kgWater/kgDryAir}
  0.005,                                  !- Zone Humidification Design Supply Air Humidity Ratio Difference {kgWater/kgDryAir}
  ,                                       !- Zone Humidistat Dehumidification Set Point Schedule Name
  ,                                       !- Zone Humidistat Humidification Set Point Schedule Name
  ,                                       !- Design Zone Air Distribution Effectiveness in Cooling Mode
  ,                                       !- Design Zone Air Distribution Effectiveness in Heating Mode
  ,                                       !- Design Zone Secondary Recirculation Fraction {dimensionless}
  ,                                       !- Design Minimum Zone Ventilation Efficiency {dimensionless}
  Coincident;                             !- Sizing Option

OS:ZoneHVAC:EquipmentList,
  {7003a432-9d31-4731-a45e-09666578edb1}, !- Handle
  Zone HVAC Equipment List 1,             !- Name
  {7cbee8c0-f3db-4e7a-8919-e2f7a7d6029c}, !- Thermal Zone
  ,                                       !- Load Distribution Scheme
  {97058ea5-9df2-48b3-8eb0-4fad25ad3ffa}, !- Zone Equipment 1
  1,                                      !- Zone Equipment Cooling Sequence 1
  1,                                      !- Zone Equipment Heating or No-Load Sequence 1
  {a8970e07-ff42-4440-9ed4-d138c9d12705}, !- Zone Equipment Sequential Cooling Fraction Schedule Name 1
  {23d38cb1-5504-4f76-8b3c-2f5a1b41806d}; !- Zone Equipment Sequential Heating Fraction Schedule Name 1

OS:AdditionalProperties,
  {b0c5d143-7437-4028-9b17-3ed89cccb2b7}, !- Handle
  {7cbee8c0-f3db-4e7a-8919-e2f7a7d6029c}, !- Object Name
  ObjectType,                             !- Feature Name 1
  String,                                 !- Feature Data Type 1
  conditioned space;                      !- Feature Value 1

OS:Space,
  {758a4712-471b-48a4-b601-7b592768ca55}, !- Handle
  conditioned space 1,                    !- Name
  ,                                       !- Space Type Name
  ,                                       !- Default Construction Set Name
  ,                                       !- Default Schedule Set Name
  ,                                       !- Direction of Relative North {deg}
  ,                                       !- X Origin {m}
  ,                                       !- Y Origin {m}
  ,                                       !- Z Origin {m}
  ,                                       !- Building Story Name
  {7cbee8c0-f3db-4e7a-8919-e2f7a7d6029c}, !- Thermal Zone Name
  ,                                       !- Part of Total Floor Area
  ,                                       !- Design Specification Outdoor Air Object Name
  ,                                       !- Building Unit Name
  346.03186535424;                        !- Volume {m3}

OS:Schedule:Ruleset,
  {b7c3cb2f-60b4-4650-b47f-411033aa7aa7}, !- Handle
  heating setpoint,                       !- Name
  {66d370a6-b32d-4552-84d3-ba2d0e5a98c2}, !- Schedule Type Limits Name
  {12b93834-3062-4185-8ef0-420f7786bfe8}; !- Default Day Schedule Name

OS:Schedule:Day,
  {12b93834-3062-4185-8ef0-420f7786bfe8}, !- Handle
  heating setpoint default day,           !- Name
  {66d370a6-b32d-4552-84d3-ba2d0e5a98c2}, !- Schedule Type Limits Name
  ,                                       !- Interpolate to Timestep
  24,                                     !- Hour 1
  0,                                      !- Minute 1
  0;                                      !- Value Until Time 1

OS:Schedule:Rule,
  {a37a50ec-6601-48d7-bfaf-891b429813f6}, !- Handle
  heating setpoint allday rule,           !- Name
  {b7c3cb2f-60b4-4650-b47f-411033aa7aa7}, !- Schedule Ruleset Name
  0,                                      !- Rule Order
  {d9ede25c-78de-4ec0-b6ea-4dd4c231344b}, !- Day Schedule Name
  Yes,                                    !- Apply Sunday
  Yes,                                    !- Apply Monday
  Yes,                                    !- Apply Tuesday
  Yes,                                    !- Apply Wednesday
  Yes,                                    !- Apply Thursday
  Yes,                                    !- Apply Friday
  Yes,                                    !- Apply Saturday
  DateRange,                              !- Date Specification Type
  1,                                      !- Start Month
  1,                                      !- Start Day
  12,                                     !- End Month
  31;                                     !- End Day

OS:Schedule:Day,
  {d9ede25c-78de-4ec0-b6ea-4dd4c231344b}, !- Handle
  heating setpoint day,                   !- Name
  {66d370a6-b32d-4552-84d3-ba2d0e5a98c2}, !- Schedule Type Limits Name
  ,                                       !- Interpolate to Timestep
  24,                                     !- Hour 1
  0,                                      !- Minute 1
  20;                                     !- Value Until Time 1

OS:Schedule:Ruleset,
  {f3b68044-f784-4aea-b6bd-4525edd56f9e}, !- Handle
  cooling setpoint,                       !- Name
  {66d370a6-b32d-4552-84d3-ba2d0e5a98c2}, !- Schedule Type Limits Name
  {c819186c-8cd6-46ac-9962-238b6f0241cf}; !- Default Day Schedule Name

OS:Schedule:Day,
  {c819186c-8cd6-46ac-9962-238b6f0241cf}, !- Handle
  cooling setpoint default day,           !- Name
  {66d370a6-b32d-4552-84d3-ba2d0e5a98c2}, !- Schedule Type Limits Name
  ,                                       !- Interpolate to Timestep
  24,                                     !- Hour 1
  0,                                      !- Minute 1
  0;                                      !- Value Until Time 1

OS:Schedule:Rule,
  {0e06c3b3-4d7e-428d-906a-e866c721c2db}, !- Handle
  cooling setpoint allday rule,           !- Name
  {f3b68044-f784-4aea-b6bd-4525edd56f9e}, !- Schedule Ruleset Name
  0,                                      !- Rule Order
  {9fa060d5-6f06-40a0-867f-b106e6935192}, !- Day Schedule Name
  Yes,                                    !- Apply Sunday
  Yes,                                    !- Apply Monday
  Yes,                                    !- Apply Tuesday
  Yes,                                    !- Apply Wednesday
  Yes,                                    !- Apply Thursday
  Yes,                                    !- Apply Friday
  Yes,                                    !- Apply Saturday
  DateRange,                              !- Date Specification Type
  1,                                      !- Start Month
  1,                                      !- Start Day
  12,                                     !- End Month
  31;                                     !- End Day

OS:Schedule:Day,
  {9fa060d5-6f06-40a0-867f-b106e6935192}, !- Handle
  cooling setpoint day,                   !- Name
  {66d370a6-b32d-4552-84d3-ba2d0e5a98c2}, !- Schedule Type Limits Name
  ,                                       !- Interpolate to Timestep
  24,                                     !- Hour 1
  0,                                      !- Minute 1
  25.5555555555556;                       !- Value Until Time 1

OS:ThermostatSetpoint:DualSetpoint,
  {16c7c000-26fb-4f3e-bbcd-8e833d907cbc}, !- Handle
  conditioned space temperature setpoint, !- Name
  {b7c3cb2f-60b4-4650-b47f-411033aa7aa7}, !- Heating Setpoint Temperature Schedule Name
  {f3b68044-f784-4aea-b6bd-4525edd56f9e}, !- Cooling Setpoint Temperature Schedule Name
  0;                                      !- Temperature Difference Between Cutout And Setpoint {deltaC}

OS:ScheduleTypeLimits,
  {66d370a6-b32d-4552-84d3-ba2d0e5a98c2}, !- Handle
  Temperature,                            !- Name
  ,                                       !- Lower Limit Value
  ,                                       !- Upper Limit Value
  Continuous,                             !- Numeric Type
  Temperature;                            !- Unit Type

OS:Surface,
  {b54d17a1-29d4-4eac-a21a-ea8ae3289b23}, !- Handle
  Wall1,                                  !- Name
  Wall,                                   !- Surface Type
  {8fe07bad-73cc-4349-9bc3-fae71f00a82f}, !- Construction Name
  {758a4712-471b-48a4-b601-7b592768ca55}, !- Space Name
  Outdoors,                               !- Outside Boundary Condition
  ,                                       !- Outside Boundary Condition Object
  SunExposed,                             !- Sun Exposure
  WindExposed,                            !- Wind Exposure
  ,                                       !- View Factor to Ground
  ,                                       !- Number of Vertices
  -4.95193308575712, 6.96193691424288, 0.6096, !- X,Y,Z Vertex 1 {m}
  -4.95193308575712, 6.96193691424288, 3.048, !- X,Y,Z Vertex 2 {m}
  6.96193691424288, 6.96193691424288, 3.048, !- X,Y,Z Vertex 3 {m}
  6.96193691424288, 6.96193691424288, 0.6096; !- X,Y,Z Vertex 4 {m}

OS:AdditionalProperties,
  {7209a30b-7ba1-4328-8b06-2b27c04187c4}, !- Handle
  {b54d17a1-29d4-4eac-a21a-ea8ae3289b23}, !- Object Name
  Length,                                 !- Feature Name 1
  Double,                                 !- Feature Data Type 1
  39.087499999999999,                     !- Feature Value 1
  Azimuth,                                !- Feature Name 2
  Integer,                                !- Feature Data Type 2
  0,                                      !- Feature Value 2
  Tilt,                                   !- Feature Name 3
  Double,                                 !- Feature Data Type 3
  90,                                     !- Feature Value 3
  SurfaceType,                            !- Feature Name 4
  String,                                 !- Feature Data Type 4
  Wall;                                   !- Feature Value 4

OS:Material,
  {22fd5a07-64b2-48f0-bd70-8d0f10ad5c20}, !- Handle
  wood siding,                            !- Name
  Rough,                                  !- Roughness
  0.0254,                                 !- Thickness {m}
  0.1024175,                              !- Conductivity {W/m-K}
  544.68,                                 !- Density {kg/m3}
  1172.36,                                !- Specific Heat {J/kg-K}
  0.9,                                    !- Thermal Absorptance
  0.7,                                    !- Solar Absorptance
  0.7;                                    !- Visible Absorptance

OS:Material,
  {d0854a32-a6d1-4bbe-9dac-605df589d032}, !- Handle
  osb sheathing 0.5 in.,                  !- Name
  Rough,                                  !- Roughness
  0.0127,                                 !- Thickness {m}
  0.1154577,                              !- Conductivity {W/m-K}
  512.64,                                 !- Density {kg/m3}
  1214.23,                                !- Specific Heat {J/kg-K}
  0.9,                                    !- Thermal Absorptance
  0.7,                                    !- Solar Absorptance
  0.7;                                    !- Visible Absorptance

OS:Material,
  {66164c53-69e1-4063-85c4-478a9014e19b}, !- Handle
  wall stud and cavity,                   !- Name
  Rough,                                  !- Roughness
  0.1397,                                 !- Thickness {m}
  0.0929021674204099,                     !- Conductivity {W/m-K}
  139.0536,                               !- Density {kg/m3}
  1170.23755760369,                       !- Specific Heat {J/kg-K}
  0.9,                                    !- Thermal Absorptance
  0.7,                                    !- Solar Absorptance
  0.7;                                    !- Visible Absorptance

OS:Material,
  {44f3b960-4757-4d05-b197-27223fbb99ee}, !- Handle
  gypsum board,                           !- Name
  Rough,                                  !- Roughness
  0.0127,                                 !- Thickness {m}
  0.1602906,                              !- Conductivity {W/m-K}
  801,                                    !- Density {kg/m3}
  837.4,                                  !- Specific Heat {J/kg-K}
  0.9,                                    !- Thermal Absorptance
  0.6,                                    !- Solar Absorptance
  0.6;                                    !- Visible Absorptance

OS:Construction,
  {8fe07bad-73cc-4349-9bc3-fae71f00a82f}, !- Handle
  Wall1 construction,                     !- Name
  ,                                       !- Surface Rendering Name
  {22fd5a07-64b2-48f0-bd70-8d0f10ad5c20}, !- Layer 1
  {d0854a32-a6d1-4bbe-9dac-605df589d032}, !- Layer 2
  {66164c53-69e1-4063-85c4-478a9014e19b}, !- Layer 3
  {44f3b960-4757-4d05-b197-27223fbb99ee}; !- Layer 4

OS:Surface,
  {3799a3a2-19f7-4b83-8511-98fabf63af5b}, !- Handle
  Wall2,                                  !- Name
  Wall,                                   !- Surface Type
  {006576bd-a514-459c-ad75-a29a85742105}, !- Construction Name
  {758a4712-471b-48a4-b601-7b592768ca55}, !- Space Name
  Outdoors,                               !- Outside Boundary Condition
  ,                                       !- Outside Boundary Condition Object
  SunExposed,                             !- Sun Exposure
  WindExposed,                            !- Wind Exposure
  ,                                       !- View Factor to Ground
  ,                                       !- Number of Vertices
  6.96193691424288, -1.00690691424288, 0.6096, !- X,Y,Z Vertex 1 {m}
  6.96193691424288, -1.00690691424288, 3.048, !- X,Y,Z Vertex 2 {m}
  6.96193691424288, -6.96193691424288, 3.048, !- X,Y,Z Vertex 3 {m}
  6.96193691424288, -6.96193691424288, 0.6096; !- X,Y,Z Vertex 4 {m}

OS:AdditionalProperties,
  {e7f3bf64-c4f1-49f7-86a0-c59cb7a431c9}, !- Handle
  {3799a3a2-19f7-4b83-8511-98fabf63af5b}, !- Object Name
  Length,                                 !- Feature Name 1
  Double,                                 !- Feature Data Type 1
  19.537500000000001,                     !- Feature Value 1
  Azimuth,                                !- Feature Name 2
  Integer,                                !- Feature Data Type 2
  90,                                     !- Feature Value 2
  Tilt,                                   !- Feature Name 3
  Double,                                 !- Feature Data Type 3
  90,                                     !- Feature Value 3
  SurfaceType,                            !- Feature Name 4
  String,                                 !- Feature Data Type 4
  Wall;                                   !- Feature Value 4

OS:Construction,
  {006576bd-a514-459c-ad75-a29a85742105}, !- Handle
  Wall2 construction,                     !- Name
  ,                                       !- Surface Rendering Name
  {22fd5a07-64b2-48f0-bd70-8d0f10ad5c20}, !- Layer 1
  {d0854a32-a6d1-4bbe-9dac-605df589d032}, !- Layer 2
  {66164c53-69e1-4063-85c4-478a9014e19b}, !- Layer 3
  {44f3b960-4757-4d05-b197-27223fbb99ee}; !- Layer 4

OS:Surface,
  {e40e1f07-2c36-4082-9e38-81fe6f16f3be}, !- Handle
  Wall3,                                  !- Name
  Wall,                                   !- Surface Type
  {3c4eb287-6d14-4d24-8e97-76f65fc04e34}, !- Construction Name
  {758a4712-471b-48a4-b601-7b592768ca55}, !- Space Name
  Outdoors,                               !- Outside Boundary Condition
  ,                                       !- Outside Boundary Condition Object
  SunExposed,                             !- Sun Exposure
  WindExposed,                            !- Wind Exposure
  ,                                       !- View Factor to Ground
  ,                                       !- Number of Vertices
  6.03290651424288, -6.96193691424288, 0.6096, !- X,Y,Z Vertex 1 {m}
  6.03290651424288, -6.96193691424288, 3.048, !- X,Y,Z Vertex 2 {m}
  -5.11896348575712, -6.96193691424288, 3.048, !- X,Y,Z Vertex 3 {m}
  -5.11896348575712, -6.96193691424288, 0.6096; !- X,Y,Z Vertex 4 {m}

OS:AdditionalProperties,
  {cf084b81-d493-4cb5-a7eb-fda2b1e2b308}, !- Handle
  {e40e1f07-2c36-4082-9e38-81fe6f16f3be}, !- Object Name
  Length,                                 !- Feature Name 1
  Double,                                 !- Feature Data Type 1
  36.587499999999999,                     !- Feature Value 1
  Azimuth,                                !- Feature Name 2
  Integer,                                !- Feature Data Type 2
  180,                                    !- Feature Value 2
  Tilt,                                   !- Feature Name 3
  Double,                                 !- Feature Data Type 3
  90,                                     !- Feature Value 3
  SurfaceType,                            !- Feature Name 4
  String,                                 !- Feature Data Type 4
  Wall;                                   !- Feature Value 4

OS:Construction,
  {3c4eb287-6d14-4d24-8e97-76f65fc04e34}, !- Handle
  Wall3 construction,                     !- Name
  ,                                       !- Surface Rendering Name
  {22fd5a07-64b2-48f0-bd70-8d0f10ad5c20}, !- Layer 1
  {d0854a32-a6d1-4bbe-9dac-605df589d032}, !- Layer 2
  {66164c53-69e1-4063-85c4-478a9014e19b}, !- Layer 3
  {44f3b960-4757-4d05-b197-27223fbb99ee}; !- Layer 4

OS:Surface,
  {8dc059bc-3695-41ec-bfbd-e2308d3ac29c}, !- Handle
  Wall4,                                  !- Name
  Wall,                                   !- Surface Type
  {7cb77976-7f6e-4693-88bc-9f5010ce2e2b}, !- Construction Name
  {758a4712-471b-48a4-b601-7b592768ca55}, !- Space Name
  Outdoors,                               !- Outside Boundary Condition
  ,                                       !- Outside Boundary Condition Object
  SunExposed,                             !- Sun Exposure
  WindExposed,                            !- Wind Exposure
  ,                                       !- View Factor to Ground
  ,                                       !- Number of Vertices
  -6.96193691424288, 1.00690691424288, 0.6096, !- X,Y,Z Vertex 1 {m}
  -6.96193691424288, 1.00690691424288, 3.048, !- X,Y,Z Vertex 2 {m}
  -6.96193691424288, 6.96193691424288, 3.048, !- X,Y,Z Vertex 3 {m}
  -6.96193691424288, 6.96193691424288, 0.6096; !- X,Y,Z Vertex 4 {m}

OS:AdditionalProperties,
  {d2e1532e-fbc2-46e7-a7f6-a30716fdfd13}, !- Handle
  {8dc059bc-3695-41ec-bfbd-e2308d3ac29c}, !- Object Name