
OS:Version,
  {d45bc9d9-c7c6-42f7-89c6-29d51f6aafd5}, !- Handle
  3.10.0;                                 !- Version Identifier

OS:SimulationControl,
  {aaa8a698-fec5-4c4a-8bf6-0142db64ff82}, !- Handle
  ,                                       !- Do Zone Sizing Calculation
  ,                                       !- Do System Sizing Calculation
  ,                                       !- Do Plant Sizing Calculation
  No;                                     !- Run Simulation for Sizing Periods

OS:Timestep,
  {348286bf-007d-4ca0-b5d5-2af7c3f670be}, !- Handle
  1;                                      !- Number of Timesteps per Hour

OS:ShadowCalculation,
  {a4885abc-7eb6-4655-a400-497b3ed2f8c6}, !- Handle
  PolygonClipping,                        !- Shading Calculation Method
  ,                                       !- Shading Calculation Update Frequency Method
  20,                                     !- Shading Calculation Update Frequency
  200,                                    !- Maximum Figures in Shadow Overlap Calculations
  ,                                       !- Polygon Clipping Algorithm
  512,                                    !- Pixel Counting Resolution
  ,                                       !- Sky Diffuse Modeling Algorithm
  No,                                     !- Output External Shading Calculation Results
  No,                                     !- Disable Self-Shading Within Shading Zone Groups
  No;                                     !- Disable Self-Shading From Shading Zone Groups to Other Zones

OS:SurfaceConvectionAlgorithm:Outside,
  {f6b12ee3-f540-45ea-8c39-24d0b806acf3}, !- Handle
  DOE-2;                                  !- Algorithm

OS:SurfaceConvectionAlgorithm:Inside,
  {d63ae74b-95d2-42de-9cbe-919abc0441a3}, !- Handle
  TARP;                                   !- Algorithm

OS:ZoneCapacitanceMultiplier:ResearchSpecial,
  {cc8a141d-6dbc-4656-878c-df96d6b1ed20}, !- Handle
  7,                                      !- Temperature Capacity Multiplier
  15,                                     !- Humidity Capacity Multiplier
  ;                                       !- Carbon Dioxide Capacity Multiplier

OS:ConvergenceLimits,
  {6ccece76-7316-4da1-bc92-9579b4882ea3}, !- Handle
  0;                                      !- Minimum System Timestep {minutes}

OS:RunPeriod,
  {7b3b79ad-5800-4ec8-a1ad-904201cb056a}, !- Handle
  Run Period 1,                           !- Name
  1,                                      !- Begin Month
  1,                                      !- Begin Day of Month
  12,                                     !- End Month
  31,                                     !- End Day of Month
  ,                                       !- Use Weather File Holidays and Special Days
  ,                                       !- Use Weather File Daylight Saving Period
  ,                                       !- Apply Weekend Holiday Rule
  ,                                       !- Use Weather File Rain Indicators
  ,                                       !- Use Weather File Snow Indicators
  ;                                       !- Number of Times Runperiod to be Repeated

OS:PerformancePrecisionTradeoffs,
  {18f6b2ac-62c9-42d4-a7df-ed7a6afab032}, !- Handle
  ,                                       !- Use Coil Direct Solutions
  CarrollMRT;                             !- Zone Radiant Exchange Algorithm

OS:WeatherFile,
  {285351f3-2c99-4e6b-8e5e-53fb22e5f864}, !- Handle
  Buffalo Niagara Intl Ap,                !- City
  NY,                                     !- State Province Region
  USA,                                    !- Country
  TMY3,                                   !- Data Source
  725280,                                 !- WMO Number
  42.93,                                  !- Latitude {deg}
  -78.73,                                 !- Longitude {deg}
  -5,                                     !- Time Zone {hr}
  215,                                    !- Elevation {m}
  /Users/nmoore/github/urbanopt-example-geojson-project/example_project/weather/USA_NY_Buffalo-Greater.Buffalo.Intl.AP.725280_TMY3.epw, !- Url
  6B50E0FF,                               !- Checksum
  ,                                       !- Start Date Actual Year
  Sunday;                                 !- Start Day of Week

OS:YearDescription,
  {13d468e7-db7e-44ad-bad6-522962addf99}, !- Handle
  2007,                                   !- Calendar Year
  ,                                       !- Day of Week for Start Day
  ;                                       !- Is Leap Year

OS:Site,
  {46a80826-8cc7-4ac0-bf96-b63b8a6ff267}, !- Handle
  Buffalo Niagara Intl Ap_NY,             !- Name
  42.93,                                  !- Latitude {deg}
  -78.73,                                 !- Longitude {deg}
  -5,                                     !- Time Zone {hr}
  215,                                    !- Elevation {m}
  Suburbs,                                !- Terrain
  Yes;                                    !- Keep Site Location Information

OS:RunPeriodControl:DaylightSavingTime,
  {0f542b00-ed99-4235-980e-7af0adaf2315}, !- Handle
  Mar 12,                                 !- Start Date
  Nov 5;                                  !- End Date

OS:Site:GroundTemperature:Shallow,
  {658c933a-1d59-4eed-8160-ceea3b5c1f66}, !- Handle
  4.30207395723828,                       !- January Surface Ground Temperature {C}
  2.29327249652502,                       !- February Surface Ground Temperature {C}
  2.13240047156047,                       !- March Surface Ground Temperature {C}
  3.08567940719286,                       !- April Surface Ground Temperature {C}
  6.91256312497526,                       !- May Surface Ground Temperature {C}
  10.7216195949507,                       !- June Surface Ground Temperature {C}
  14.0238679822574,                       !- July Surface Ground Temperature {C}
  16.1157611184724,                       !- August Surface Ground Temperature {C}
  16.2934789303462,                       !- September Surface Ground Temperature {C}
  14.5920754632847,                       !- October Surface Ground Temperature {C}
  11.374036348653,                        !- November Surface Ground Temperature {C}
  7.68182621661674;                       !- December Surface Ground Temperature {C}

OS:ThermalZone,
  {7a5f5a6b-91ea-4114-af89-c29df9264d10}, !- Handle
  conditioned space,                      !- Name
  1,                                      !- Multiplier
  ,                                       !- Ceiling Height {m}
  346.03186535424,                        !- Volume {m3}
  ,                                       !- Floor Area {m2}
  ,                                       !- Zone Inside Convection Algorithm
  ,                                       !- Zone Outside Convection Algorithm
  ,                                       !- Zone Conditioning Equipment List Name
  {53a2e378-6607-4234-bd31-ebee243d8afe}, !- Zone Air Inlet Port List
  {0c23ece4-3b07-4645-aac8-164cd9cef538}, !- Zone Air Exhaust Port List
  {7821939d-9f61-42f1-96bc-a562e98ee4bd}, !- Zone Air Node Name
  {dea465c2-b2e1-4c38-b92b-4ba3426f0f27}, !- Zone Return Air Port List
  ,                                       !- Primary Daylighting Control Name
  ,                                       !- Fraction of Zone Controlled by Primary Daylighting Control
  ,                                       !- Secondary Daylighting Control Name
  ,                                       !- Fraction of Zone Controlled by Secondary Daylighting Control
  ,                                       !- Illuminance Map Name
  ,                                       !- Group Rendering Name
  {611f66cf-f13f-4838-987d-3180e62f59cd}, !- Thermostat Name
  No;                                     !- Use Ideal Air Loads

OS:Node,
  {fb7db953-9c9f-4141-aef6-8943a186c963}, !- Handle
  Node 1,                                 !- Name
  {7821939d-9f61-42f1-96bc-a562e98ee4bd}, !- Inlet Port
  ;                                       !- Outlet Port

OS:Connection,
  {7821939d-9f61-42f1-96bc-a562e98ee4bd}, !- Handle
  {7a5f5a6b-91ea-4114-af89-c29df9264d10}, !- Source Object
  11,                                     !- Outlet Port
  {fb7db953-9c9f-4141-aef6-8943a186c963}, !- Target Object
  2;                                      !- Inlet Port

OS:PortList,
  {53a2e378-6607-4234-bd31-ebee243d8afe}, !- Handle
  {7a5f5a6b-91ea-4114-af89-c29df9264d10}, !- HVAC Component
  {d12d4fc5-2f2d-4863-b6bd-8b701e9248b1}; !- Port 1

OS:PortList,
  {0c23ece4-3b07-4645-aac8-164cd9cef538}, !- Handle
  {7a5f5a6b-91ea-4114-af89-c29df9264d10}; !- HVAC Component

OS:PortList,
  {dea465c2-b2e1-4c38-b92b-4ba3426f0f27}, !- Handle
  {7a5f5a6b-91ea-4114-af89-c29df9264d10}, !- HVAC Component
  {1e9bc521-3cf4-4f5a-99ba-4f37cd0adbac}; !- Port 1

OS:Sizing:Zone,
  {a2febd4e-0e1f-4ceb-bf0a-e7000c1d3ad0}, !- Handle
  {7a5f5a6b-91ea-4114-af89-c29df9264d10}, !- Zone or ZoneList Name
  SupplyAirTemperature,                   !- Zone Cooling Design Supply Air Temperature Input Method
  14,                                     !- Zone Cooling Design Supply Air Temperature {C}
  11.11,                                  !- Zone Cooling Design Supply Air Temperature Difference {deltaC}
  SupplyAirTemperature,                   !- Zone Heating Design Supply Air Temperature Input Method
  40,                                     !- Zone Heating Design Supply Air Temperature {C}
  11.11,                                  !- Zone Heating Design Supply Air Temperature Difference {deltaC}
  0.0085,                                 !- Zone Cooling Design Supply Air Humidity Ratio {kg-H2O/kg-air}
  0.008,                                  !- Zone Heating Design Supply Air Humidity Ratio {kg-H2O/kg-air}
  ,                                       !- Zone Heating Sizing Factor
  ,                                       !- Zone Cooling Sizing Factor
  DesignDay,                              !- Cooling Design Air Flow Method
  ,                                       !- Cooling Design Air Flow Rate {m3/s}
  ,                                       !- Cooling Minimum Air Flow per Zone Floor Area {m3/s-m2}
  ,                                       !- Cooling Minimum Air Flow {m3/s}
  ,                                       !- Cooling Minimum Air Flow Fraction
  DesignDay,                              !- Heating Design Air Flow Method
  ,                                       !- Heating Design Air Flow Rate {m3/s}
  ,                                       !- Heating Maximum Air Flow per Zone Floor Area {m3/s-m2}
  ,                                       !- Heating Maximum Air Flow {m3/s}
  ,                                       !- Heating Maximum Air Flow Fraction
  No,                                     !- Account for Dedicated Outdoor Air System
  NeutralSupplyAir,                       !- Dedicated Outdoor Air System Control Strategy
  autosize,                               !- Dedicated Outdoor Air Low Setpoint Temperature for Design {C}
  autosize,                               !- Dedicated Outdoor Air High Setpoint Temperature for Design {C}
  Sensible Load Only No Latent Load,      !- Zone Load Sizing Method
  HumidityRatioDifference,                !- Zone Latent Cooling Design Supply Air Humidity Ratio Input Method
  ,                                       !- Zone Dehumidification Design Supply Air Humidity Ratio {kgWater/kgDryAir}
  0.005,                                  !- Zone Cooling Design Supply Air Humidity Ratio Difference {kgWater/kgDryAir}
  HumidityRatioDifference,                !- Zone Latent Heating Design Supply Air Humidity Ratio Input Method
  ,                                       !- Zone Humidification Design Supply Air Humidity Ratio {kgWater/kgDryAir}
  0.005,                                  !- Zone Humidification Design Supply Air Humidity Ratio Difference {kgWater/kgDryAir}
  ,                                       !- Zone Humidistat Dehumidification Set Point Schedule Name
  ,                                       !- Zone Humidistat Humidification Set Point Schedule Name
  ,                                       !- Design Zone Air Distribution Effectiveness in Cooling Mode
  ,                                       !- Design Zone Air Distribution Effectiveness in Heating Mode
  ,                                       !- Design Zone Secondary Recirculation Fraction {dimensionless}
  ,                                       !- Design Minimum Zone Ventilation Efficiency {dimensionless}
  Coincident;                             !- Sizing Option

OS:ZoneHVAC:EquipmentList,
  {dfb484a0-89ef-4374-8155-870af96a652c}, !- Handle
  Zone HVAC Equipment List 1,             !- Name
  {7a5f5a6b-91ea-4114-af89-c29df9264d10}, !- Thermal Zone
  ,                                       !- Load Distribution Scheme
  {3e024850-0b93-4865-919f-db598db64c09}, !- Zone Equipment 1
  1,                                      !- Zone Equipment Cooling Sequence 1
  1,                                      !- Zone Equipment Heating or No-Load Sequence 1
  {601d7649-2bef-4942-8e99-b93474e90f02}, !- Zone Equipment Sequential Cooling Fraction Schedule Name 1
  {9146d94c-6b12-4cdb-a1ae-95d44ebc2383}; !- Zone Equipment Sequential Heating Fraction Schedule Name 1

OS:AdditionalProperties,
  {c82e554a-dd78-488c-b5f2-fcbcf6e1ba87}, !- Handle
  {7a5f5a6b-91ea-4114-af89-c29df9264d10}, !- Object Name
  ObjectType,                             !- Feature Name 1
  String,                                 !- Feature Data Type 1
  conditioned space;                      !- Feature Value 1

OS:Space,
  {ff98cafb-ce26-4d00-b7ea-940dbe4d99da}, !- Handle
  conditioned space 1,                    !- Name
  ,                                       !- Space Type Name
  ,                                       !- Default Construction Set Name
  ,                                       !- Default Schedule Set Name
  ,                                       !- Direction of Relative North {deg}
  ,                                       !- X Origin {m}
  ,                                       !- Y Origin {m}
  ,                                       !- Z Origin {m}
  ,                                       !- Building Story Name
  {7a5f5a6b-91ea-4114-af89-c29df9264d10}, !- Thermal Zone Name
  ,                                       !- Part of Total Floor Area
  ,                                       !- Design Specification Outdoor Air Object Name
  ,                                       !- Building Unit Name
  346.03186535424;                        !- Volume {m3}

OS:Schedule:Ruleset,
  {03c2bec3-412d-460e-a8f5-c3178d5785d6}, !- Handle
  heating setpoint,                       !- Name
  {7fed1ac2-8ef3-473e-90b1-8df5156070f8}, !- Schedule Type Limits Name
  {27aa24f7-35b5-4db9-a0cc-f30f596239c4}; !- Default Day Schedule Name

OS:Schedule:Day,
  {27aa24f7-35b5-4db9-a0cc-f30f596239c4}, !- Handle
  heating setpoint default day,           !- Name
  {7fed1ac2-8ef3-473e-90b1-8df5156070f8}, !- Schedule Type Limits Name
  ,                                       !- Interpolate to Timestep
  24,                                     !- Hour 1
  0,                                      !- Minute 1
  0;                                      !- Value Until Time 1

OS:Schedule:Rule,
  {0b185e7e-2bb1-4ffb-bfcb-206706f9f6c0}, !- Handle
  heating setpoint allday rule,           !- Name
  {03c2bec3-412d-460e-a8f5-c3178d5785d6}, !- Schedule Ruleset Name
  0,                                      !- Rule Order
  {107d12db-3f3a-4469-8574-1fcd865ba473}, !- Day Schedule Name
  Yes,                                    !- Apply Sunday
  Yes,                                    !- Apply Monday
  Yes,                                    !- Apply Tuesday
  Yes,                                    !- Apply Wednesday
  Yes,                                    !- Apply Thursday
  Yes,                                    !- Apply Friday
  Yes,                                    !- Apply Saturday
  DateRange,                              !- Date Specification Type
  1,                                      !- Start Month
  1,                                      !- Start Day
  12,                                     !- End Month
  31;                                     !- End Day

OS:Schedule:Day,
  {107d12db-3f3a-4469-8574-1fcd865ba473}, !- Handle
  heating setpoint day,                   !- Name
  {7fed1ac2-8ef3-473e-90b1-8df5156070f8}, !- Schedule Type Limits Name
  ,                                       !- Interpolate to Timestep
  24,                                     !- Hour 1
  0,                                      !- Minute 1
  20;                                     !- Value Until Time 1

OS:Schedule:Ruleset,
  {e2396524-4ce1-4fc7-9939-07227389509f}, !- Handle
  cooling setpoint,                       !- Name
  {7fed1ac2-8ef3-473e-90b1-8df5156070f8}, !- Schedule Type Limits Name
  {88eb44dc-65b9-4edd-a345-c91e08b0775e}; !- Default Day Schedule Name

OS:Schedule:Day,
  {88eb44dc-65b9-4edd-a345-c91e08b0775e}, !- Handle
  cooling setpoint default day,           !- Name
  {7fed1ac2-8ef3-473e-90b1-8df5156070f8}, !- Schedule Type Limits Name
  ,                                       !- Interpolate to Timestep
  24,                                     !- Hour 1
  0,                                      !- Minute 1
  0;                                      !- Value Until Time 1

OS:Schedule:Rule,
  {434336fd-ed0a-4738-bddb-f2e61ece008b}, !- Handle
  cooling setpoint allday rule,           !- Name
  {e2396524-4ce1-4fc7-9939-07227389509f}, !- Schedule Ruleset Name
  0,                                      !- Rule Order
  {32ce9fcf-b1ab-46bf-a93f-47f7a7349702}, !- Day Schedule Name
  Yes,                                    !- Apply Sunday
  Yes,                                    !- Apply Monday
  Yes,                                    !- Apply Tuesday
  Yes,                                    !- Apply Wednesday
  Yes,                                    !- Apply Thursday
  Yes,                                    !- Apply Friday
  Yes,                                    !- Apply Saturday
  DateRange,                              !- Date Specification Type
  1,                                      !- Start Month
  1,                                      !- Start Day
  12,                                     !- End Month
  31;                                     !- End Day

OS:Schedule:Day,
  {32ce9fcf-b1ab-46bf-a93f-47f7a7349702}, !- Handle
  cooling setpoint day,                   !- Name
  {7fed1ac2-8ef3-473e-90b1-8df5156070f8}, !- Schedule Type Limits Name
  ,                                       !- Interpolate to Timestep
  24,                                     !- Hour 1
  0,                                      !- Minute 1
  25.5555555555556;                       !- Value Until Time 1

OS:ThermostatSetpoint:DualSetpoint,
  {611f66cf-f13f-4838-987d-3180e62f59cd}, !- Handle
  conditioned space temperature setpoint, !- Name
  {03c2bec3-412d-460e-a8f5-c3178d5785d6}, !- Heating Setpoint Temperature Schedule Name
  {e2396524-4ce1-4fc7-9939-07227389509f}, !- Cooling Setpoint Temperature Schedule Name
  0;                                      !- Temperature Difference Between Cutout And Setpoint {deltaC}

OS:ScheduleTypeLimits,
  {7fed1ac2-8ef3-473e-90b1-8df5156070f8}, !- Handle
  Temperature,                            !- Name
  ,                                       !- Lower Limit Value
  ,                                       !- Upper Limit Value
  Continuous,                             !- Numeric Type
  Temperature;                            !- Unit Type

OS:Surface,
  {0b634762-a4f4-4c53-8d02-f5e0b88417e6}, !- Handle
  Wall1,                                  !- Name
  Wall,                                   !- Surface Type
  {ee71188b-af0c-4553-8583-235e353a0fce}, !- Construction Name
  {ff98cafb-ce26-4d00-b7ea-940dbe4d99da}, !- Space Name
  Outdoors,                               !- Outside Boundary Condition
  ,                                       !- Outside Boundary Condition Object
  SunExposed,                             !- Sun Exposure
  WindExposed,                            !- Wind Exposure
  ,                                       !- View Factor to Ground
  ,                                       !- Number of Vertices
  -41.689655, 42.6186854, 0,              !- X,Y,Z Vertex 1 {m}
  -41.689655, 42.6186854, 2.4384,         !- X,Y,Z Vertex 2 {m}
  -29.775785, 42.6186854, 2.4384,         !- X,Y,Z Vertex 3 {m}
  -29.775785, 42.6186854, 0;              !- X,Y,Z Vertex 4 {m}

OS:AdditionalProperties,
  {a3f1dc4f-d803-4e1f-a930-13b03399a074}, !- Handle
  {0b634762-a4f4-4c53-8d02-f5e0b88417e6}, !- Object Name
  Length,                                 !- Feature Name 1
  Double,                                 !- Feature Data Type 1
  39.087499999999999,                     !- Feature Value 1
  Azimuth,                                !- Feature Name 2
  Integer,                                !- Feature Data Type 2
  0,                                      !- Feature Value 2
  Tilt,                                   !- Feature Name 3
  Double,                                 !- Feature Data Type 3
  90,                                     !- Feature Value 3
  SurfaceType,                            !- Feature Name 4
  String,                                 !- Feature Data Type 4
  Wall;                                   !- Feature Value 4

OS:Material,
  {3d38c2c5-616d-4a35-a8d0-01265658f62f}, !- Handle
  wood siding,                            !- Name
  Rough,                                  !- Roughness
  0.0254,                                 !- Thickness {m}
  0.1024175,                              !- Conductivity {W/m-K}
  544.68,                                 !- Density {kg/m3}
  1172.36,                                !- Specific Heat {J/kg-K}
  0.9,                                    !- Thermal Absorptance
  0.7,                                    !- Solar Absorptance
  0.7;                                    !- Visible Absorptance

OS:Material,
  {1b8b99e1-5be1-4472-8963-58ecee569fb3}, !- Handle
  osb sheathing 0.5 in.,                  !- Name
  Rough,                                  !- Roughness
  0.0127,                                 !- Thickness {m}
  0.1154577,                              !- Conductivity {W/m-K}
  512.64,                                 !- Density {kg/m3}
  1214.23,                                !- Specific Heat {J/kg-K}
  0.9,                                    !- Thermal Absorptance
  0.7,                                    !- Solar Absorptance
  0.7;                                    !- Visible Absorptance

OS:Material,
  {8467d52a-4d27-4bd6-8438-d9cc3d1a4d3b}, !- Handle
  wall stud and cavity,                   !- Name
  Rough,                                  !- Roughness
  0.1397,                                 !- Thickness {m}
  0.0929021674204099,                     !- Conductivity {W/m-K}
  139.0536,                               !- Density {kg/m3}
  1170.23755760369,                       !- Specific Heat {J/kg-K}
  0.9,                                    !- Thermal Absorptance
  0.7,                                    !- Solar Absorptance
  0.7;                                    !- Visible Absorptance

OS:Material,
  {e912f2c6-da60-4baf-9b00-54234622952c}, !- Handle
  gypsum board,                           !- Name
  Rough,                                  !- Roughness
  0.0127,                                 !- Thickness {m}
  0.1602906,                              !- Conductivity {W/m-K}
  801,                                    !- Density {kg/m3}
  837.4,                                  !- Specific Heat {J/kg-K}
  0.9,                                    !- Thermal Absorptance
  0.6,                                    !- Solar Absorptance
  0.6;                                    !- Visible Absorptance

OS:Construction,
  {ee71188b-af0c-4553-8583-235e353a0fce}, !- Handle
  Wall1 construction,                     !- Name
  ,                                       !- Surface Rendering Name
  {3d38c2c5-616d-4a35-a8d0-01265658f62f}, !- Layer 1
  {1b8b99e1-5be1-4472-8963-58ecee569fb3}, !- Layer 2
  {8467d52a-4d27-4bd6-8438-d9cc3d1a4d3b}, !- Layer 3
  {e912f2c6-da60-4baf-9b00-54234622952c}; !- Layer 4

OS:Surface,
  {2ea49751-f4c3-42b0-93f4-f9a3ff36e957}, !- Handle
  Wall2,                                  !- Name
  Wall,                                   !- Surface Type
  {5e89f87c-9cf2-4eb9-82db-7749017af9c3}, !- Construction Name
  {ff98cafb-ce26-4d00-b7ea-940dbe4d99da}, !- Space Name
  Outdoors,                               !- Outside Boundary Condition
  ,                                       !- Outside Boundary Condition Object
  SunExposed,                             !- Sun Exposure
  WindExposed,                            !- Wind Exposure
  ,                                       !- View Factor to Ground
  ,                                       !- Number of Vertices
  42.6186854, -36.6636554, 0,             !- X,Y,Z Vertex 1 {m}
  42.6186854, -36.6636554, 2.4384,        !- X,Y,Z Vertex 2 {m}
  42.6186854, -42.6186854, 2.4384,        !- X,Y,Z Vertex 3 {m}
  42.6186854, -42.6186854, 0;             !- X,Y,Z Vertex 4 {m}

OS:AdditionalProperties,
  {dae0f24e-c11c-437c-8992-ac9d451577f2}, !- Handle
  {2ea49751-f4c3-42b0-93f4-f9a3ff36e957}, !- Object Name
  Length,                                 !- Feature Name 1
  Double,                                 !- Feature Data Type 1
  19.537500000000001,                     !- Feature Value 1
  Azimuth,                                !- Feature Name 2
  Integer,                                !- Feature Data Type 2
  90,                                     !- Feature Value 2
  Tilt,                                   !- Feature Name 3
  Double,                                 !- Feature Data Type 3
  90,                                     !- Feature Value 3
  SurfaceType,                            !- Feature Name 4
  String,                                 !- Feature Data Type 4
  Wall;                                   !- Feature Value 4

OS:Construction,
  {5e89f87c-9cf2-4eb9-82db-7749017af9c3}, !- Handle
  Wall2 construction,                     !- Name
  ,                                       !- Surface Rendering Name
  {3d38c2c5-616d-4a35-a8d0-01265658f62f}, !- Layer 1
  {1b8b99e1-5be1-4472-8963-58ecee569fb3}, !- Layer 2
  {8467d52a-4d27-4bd6-8438-d9cc3d1a4d3b}, !- Layer 3
  {e912f2c6-da60-4baf-9b00-54234622952c}; !- Layer 4

OS:Surface,
  {0363be75-0e46-4561-a6eb-f4035b33a014}, !- Handle
  Wall3,                                  !- Name
  Wall,                                   !- Surface Type
  {6379e830-cd96-4e6c-b05d-426701de9dac}, !- Construction Name
  {ff98cafb-ce26-4d00-b7ea-940dbe4d99da}, !- Space Name
  Outdoors,                               !- Outside Boundary Condition
  ,                                       !- Outside Boundary Condition Object
  SunExposed,                             !- Sun Exposure
  WindExposed,                            !- Wind Exposure
  ,                                       !- View Factor to Ground
  ,                                       !- Number of Vertices
  -29.6238419715142, -42.6186854, 0,      !- X,Y,Z Vertex 1 {m}
  -29.6238419715142, -42.6186854, 2.4384, !- X,Y,Z Vertex 2 {m}
  -40.7757119715142, -42.6186854, 2.4384, !- X,Y,Z Vertex 3 {m}
  -40.7757119715142, -42.6186854, 0;      !- X,Y,Z Vertex 4 {m}

OS:AdditionalProperties,
  {1dec2ad8-16da-4b36-9fc1-f222d74e43c6}, !- Handle
  {0363be75-0e46-4561-a6eb-f4035b33a014}, !- Object Name
  Length,                                 !- Feature Name 1
  Double,                                 !- Feature Data Type 1
  36.587499999999999,                     !- Feature Value 1
  Azimuth,                                !- Feature Name 2
  Integer,                                !- Feature Data Type 2
  180,                                    !- Feature Value 2
  Tilt,                                   !- Feature Name 3
  Double,                                 !- Feature Data Type 3
  90,                                     !- Feature Value 3
  SurfaceType,                            !- Feature Name 4
  String,                                 !- Feature Data Type 4
  Wall;                                   !- Feature Value 4

OS:Construction,
  {6379e830-cd96-4e6c-b05d-426701de9dac}, !- Handle
  Wall3 construction,                     !- Name
  ,                                       !- Surface Rendering Name
  {3d38c2c5-616d-4a35-a8d0-01265658f62f}, !- Layer 1
  {1b8b99e1-5be1-4472-8963-58ecee569fb3}, !- Layer 2
  {8467d52a-4d27-4bd6-8438-d9cc3d1a4d3b}, !- Layer 3
  {e912f2c6-da60-4baf-9b00-54234622952c}; !- Layer 4

OS:Surface,
  {3cf7ad8c-81be-4728-897e-5dfe0e2b3869}, !- Handle
  Wall4,                                  !- Name
  Wall,                                   !- Surface Type
  {a54ff983-911c-4de1-acd7-9cb80d5c44f0}, !- Construction Name
  {ff98cafb-ce26-4d00-b7ea-940dbe4d99da}, !- Space Name
  Outdoors,                               !- Outside Boundary Condition
  ,                                       !- Outside Boundary Condition Object
  SunExposed,                             !- Sun Exposure
  WindExposed,                            !- Wind Exposure
  ,                                       !- View Factor to Ground
  ,                                       !- Number of Vertices
  -42.6186854, 36.6636554, 0,             !- X,Y,Z Vertex 1 {m}
  -42.6186854, 36.6636554, 2.4384,        !- X,Y,Z Vertex 2 {m}
  -42.6186854, 42.6186854, 2.4384,        !- X,Y,Z Vertex 3 {m}
  -42.6186854, 42.6186854, 0;             !- X,Y,Z Vertex 4 {m}

OS:AdditionalProperties,
  {67f82fe3-9574-47a7-ade4-0bffb0a1f358}, !- Handle
  {3cf7ad8c-81be-4728-897e-5dfe0e2b3869}, !- Object Name
  Length,                                 !- Feature Name 1