
OS:Version,
  {95834c83-f48f-4772-a935-9d0b8d82a529}, !- Handle
  3.9.0;                                  !- Version Identifier

OS:SimulationControl,
  {b43527d6-4036-45e4-9f64-d780f7fc539c}, !- Handle
  ,                                       !- Do Zone Sizing Calculation
  ,                                       !- Do System Sizing Calculation
  ,                                       !- Do Plant Sizing Calculation
  No;                                     !- Run Simulation for Sizing Periods

OS:Timestep,
  {f23aa858-2b2f-4055-b756-1d3a17087d5d}, !- Handle
  1;                                      !- Number of Timesteps per Hour

OS:ShadowCalculation,
  {101c29ca-108d-4a44-a834-019a2a2f36c4}, !- Handle
  PolygonClipping,                        !- Shading Calculation Method
  ,                                       !- Shading Calculation Update Frequency Method
  20,                                     !- Shading Calculation Update Frequency
  200,                                    !- Maximum Figures in Shadow Overlap Calculations
  ,                                       !- Polygon Clipping Algorithm
  512,                                    !- Pixel Counting Resolution
  ,                                       !- Sky Diffuse Modeling Algorithm
  No,                                     !- Output External Shading Calculation Results
  No,                                     !- Disable Self-Shading Within Shading Zone Groups
  No;                                     !- Disable Self-Shading From Shading Zone Groups to Other Zones

OS:SurfaceConvectionAlgorithm:Outside,
  {794bfcc8-d4f2-40b7-b667-7f740d18d0bf}, !- Handle
  DOE-2;                                  !- Algorithm

OS:SurfaceConvectionAlgorithm:Inside,
  {ac58e4e7-8d25-4629-a9da-c8053c2b7cec}, !- Handle
  TARP;                                   !- Algorithm

OS:ZoneCapacitanceMultiplier:ResearchSpecial,
  {a8066c94-3bb7-45cf-ab06-9910e4f3604c}, !- Handle
  7,                                      !- Temperature Capacity Multiplier
  15,                                     !- Humidity Capacity Multiplier
  ;                                       !- Carbon Dioxide Capacity Multiplier

OS:ConvergenceLimits,
  {1c9f728c-4d97-49af-9c0c-7743c76ebfed}, !- Handle
  0;                                      !- Minimum System Timestep {minutes}

OS:RunPeriod,
  {c6143780-c268-4f51-a4d9-a93c70124cd8}, !- Handle
  Run Period 1,                           !- Name
  1,                                      !- Begin Month
  1,                                      !- Begin Day of Month
  12,                                     !- End Month
  31,                                     !- End Day of Month
  ,                                       !- Use Weather File Holidays and Special Days
  ,                                       !- Use Weather File Daylight Saving Period
  ,                                       !- Apply Weekend Holiday Rule
  ,                                       !- Use Weather File Rain Indicators
  ,                                       !- Use Weather File Snow Indicators
  ;                                       !- Number of Times Runperiod to be Repeated

OS:PerformancePrecisionTradeoffs,
  {054f7492-fbb4-44d1-8e63-97411e6bbff6}, !- Handle
  ,                                       !- Use Coil Direct Solutions
  CarrollMRT;                             !- Zone Radiant Exchange Algorithm

OS:WeatherFile,
  {26b1e9f7-9927-40d1-871a-ce3af53b875a}, !- Handle
  Buffalo Niagara Intl Ap,                !- City
  NY,                                     !- State Province Region
  USA,                                    !- Country
  TMY3,                                   !- Data Source
  725280,                                 !- WMO Number
  42.93,                                  !- Latitude {deg}
  -78.73,                                 !- Longitude {deg}
  -5,                                     !- Time Zone {hr}
  215,                                    !- Elevation {m}
  /Users/nmoore/github/urbanopt-example-geojson-project/example_project/weather/USA_NY_Buffalo-Greater.Buffalo.Intl.AP.725280_TMY3.epw, !- Url
  6B50E0FF,                               !- Checksum
  ,                                       !- Start Date Actual Year
  Sunday;                                 !- Start Day of Week

OS:YearDescription,
  {d115614b-e642-4176-8b83-ecc16cde8bb5}, !- Handle
  2007,                                   !- Calendar Year
  ,                                       !- Day of Week for Start Day
  ;                                       !- Is Leap Year

OS:Site,
  {4a87396b-2906-4786-8e04-71a7f54b8f23}, !- Handle
  Buffalo Niagara Intl Ap_NY,             !- Name
  42.93,                                  !- Latitude {deg}
  -78.73,                                 !- Longitude {deg}
  -5,                                     !- Time Zone {hr}
  215,                                    !- Elevation {m}
  Suburbs,                                !- Terrain
  Yes;                                    !- Keep Site Location Information

OS:RunPeriodControl:DaylightSavingTime,
  {5f5d0e7f-2261-4275-972e-62077bf8c023}, !- Handle
  Mar 12,                                 !- Start Date
  Nov 5;                                  !- End Date

OS:Site:GroundTemperature:Shallow,
  {fb3a00f9-bb14-49ac-966a-2c68f0ec8da5}, !- Handle
  4.30207395723828,                       !- January Surface Ground Temperature {C}
  2.29327249652502,                       !- February Surface Ground Temperature {C}
  2.13240047156047,                       !- March Surface Ground Temperature {C}
  3.08567940719286,                       !- April Surface Ground Temperature {C}
  6.91256312497526,                       !- May Surface Ground Temperature {C}
  10.7216195949507,                       !- June Surface Ground Temperature {C}
  14.0238679822574,                       !- July Surface Ground Temperature {C}
  16.1157611184724,                       !- August Surface Ground Temperature {C}
  16.2934789303462,                       !- September Surface Ground Temperature {C}
  14.5920754632847,                       !- October Surface Ground Temperature {C}
  11.374036348653,                        !- November Surface Ground Temperature {C}
  7.68182621661674;                       !- December Surface Ground Temperature {C}

OS:ThermalZone,
  {00c82205-b663-4345-9b51-661b3f8f949c}, !- Handle
  conditioned space,                      !- Name
  1,                                      !- Multiplier
  ,                                       !- Ceiling Height {m}
  346.03186535424,                        !- Volume {m3}
  ,                                       !- Floor Area {m2}
  ,                                       !- Zone Inside Convection Algorithm
  ,                                       !- Zone Outside Convection Algorithm
  ,                                       !- Zone Conditioning Equipment List Name
  {1f11cc2a-81bf-4a3d-bb95-30c8b04397bd}, !- Zone Air Inlet Port List
  {1da391da-ce22-4f89-8e15-af182ba420e3}, !- Zone Air Exhaust Port List
  {774e6b4e-de1b-4359-9ce0-6e5c87f5fa44}, !- Zone Air Node Name
  {e46a1689-0a29-4311-9cb0-d880909d8262}, !- Zone Return Air Port List
  ,                                       !- Primary Daylighting Control Name
  ,                                       !- Fraction of Zone Controlled by Primary Daylighting Control
  ,                                       !- Secondary Daylighting Control Name
  ,                                       !- Fraction of Zone Controlled by Secondary Daylighting Control
  ,                                       !- Illuminance Map Name
  ,                                       !- Group Rendering Name
  {ee8ea26b-d53f-4595-b9b3-80e5bc6f1530}, !- Thermostat Name
  No;                                     !- Use Ideal Air Loads

OS:Node,
  {092e63a5-285a-403e-8e79-f3272b7cf33f}, !- Handle
  Node 1,                                 !- Name
  {774e6b4e-de1b-4359-9ce0-6e5c87f5fa44}, !- Inlet Port
  ;                                       !- Outlet Port

OS:Connection,
  {774e6b4e-de1b-4359-9ce0-6e5c87f5fa44}, !- Handle
  {00c82205-b663-4345-9b51-661b3f8f949c}, !- Source Object
  11,                                     !- Outlet Port
  {092e63a5-285a-403e-8e79-f3272b7cf33f}, !- Target Object
  2;                                      !- Inlet Port

OS:PortList,
  {1f11cc2a-81bf-4a3d-bb95-30c8b04397bd}, !- Handle
  {00c82205-b663-4345-9b51-661b3f8f949c}, !- HVAC Component
  {e7dfb51b-c671-4c96-ac06-28fd1ce2f542}; !- Port 1

OS:PortList,
  {1da391da-ce22-4f89-8e15-af182ba420e3}, !- Handle
  {00c82205-b663-4345-9b51-661b3f8f949c}; !- HVAC Component

OS:PortList,
  {e46a1689-0a29-4311-9cb0-d880909d8262}, !- Handle
  {00c82205-b663-4345-9b51-661b3f8f949c}, !- HVAC Component
  {9a9e65f3-a89e-43d3-95db-c4c9b862ac39}; !- Port 1

OS:Sizing:Zone,
  {73393df1-fefb-4dae-b404-061f51be35fc}, !- Handle
  {00c82205-b663-4345-9b51-661b3f8f949c}, !- Zone or ZoneList Name
  SupplyAirTemperature,                   !- Zone Cooling Design Supply Air Temperature Input Method
  14,                                     !- Zone Cooling Design Supply Air Temperature {C}
  11.11,                                  !- Zone Cooling Design Supply Air Temperature Difference {deltaC}
  SupplyAirTemperature,                   !- Zone Heating Design Supply Air Temperature Input Method
  40,                                     !- Zone Heating Design Supply Air Temperature {C}
  11.11,                                  !- Zone Heating Design Supply Air Temperature Difference {deltaC}
  0.0085,                                 !- Zone Cooling Design Supply Air Humidity Ratio {kg-H2O/kg-air}
  0.008,                                  !- Zone Heating Design Supply Air Humidity Ratio {kg-H2O/kg-air}
  ,                                       !- Zone Heating Sizing Factor
  ,                                       !- Zone Cooling Sizing Factor
  DesignDay,                              !- Cooling Design Air Flow Method
  ,                                       !- Cooling Design Air Flow Rate {m3/s}
  ,                                       !- Cooling Minimum Air Flow per Zone Floor Area {m3/s-m2}
  ,                                       !- Cooling Minimum Air Flow {m3/s}
  ,                                       !- Cooling Minimum Air Flow Fraction
  DesignDay,                              !- Heating Design Air Flow Method
  ,                                       !- Heating Design Air Flow Rate {m3/s}
  ,                                       !- Heating Maximum Air Flow per Zone Floor Area {m3/s-m2}
  ,                                       !- Heating Maximum Air Flow {m3/s}
  ,                                       !- Heating Maximum Air Flow Fraction
  No,                                     !- Account for Dedicated Outdoor Air System
  NeutralSupplyAir,                       !- Dedicated Outdoor Air System Control Strategy
  autosize,                               !- Dedicated Outdoor Air Low Setpoint Temperature for Design {C}
  autosize,                               !- Dedicated Outdoor Air High Setpoint Temperature for Design {C}
  Sensible Load Only No Latent Load,      !- Zone Load Sizing Method
  HumidityRatioDifference,                !- Zone Latent Cooling Design Supply Air Humidity Ratio Input Method
  ,                                       !- Zone Dehumidification Design Supply Air Humidity Ratio {kgWater/kgDryAir}
  0.005,                                  !- Zone Cooling Design Supply Air Humidity Ratio Difference {kgWater/kgDryAir}
  HumidityRatioDifference,                !- Zone Latent Heating Design Supply Air Humidity Ratio Input Method
  ,                                       !- Zone Humidification Design Supply Air Humidity Ratio {kgWater/kgDryAir}
  0.005,                                  !- Zone Humidification Design Supply Air Humidity Ratio Difference {kgWater/kgDryAir}
  ,                                       !- Zone Humidistat Dehumidification Set Point Schedule Name
  ,                                       !- Zone Humidistat Humidification Set Point Schedule Name
  ,                                       !- Design Zone Air Distribution Effectiveness in Cooling Mode
  ,                                       !- Design Zone Air Distribution Effectiveness in Heating Mode
  ,                                       !- Design Zone Secondary Recirculation Fraction {dimensionless}
  ,                                       !- Design Minimum Zone Ventilation Efficiency {dimensionless}
  Coincident;                             !- Sizing Option

OS:ZoneHVAC:EquipmentList,
  {0a7369ec-bf0f-4bc4-9eb7-9962c80bcbe0}, !- Handle
  Zone HVAC Equipment List 1,             !- Name
  {00c82205-b663-4345-9b51-661b3f8f949c}, !- Thermal Zone
  ,                                       !- Load Distribution Scheme
  {dead47c3-8b7e-4c63-b60e-914d60cd2bcf}, !- Zone Equipment 1
  1,                                      !- Zone Equipment Cooling Sequence 1
  1,                                      !- Zone Equipment Heating or No-Load Sequence 1
  {fc528a77-bb2f-4dd9-954e-1fc562f153ba}, !- Zone Equipment Sequential Cooling Fraction Schedule Name 1
  {92f30ac3-50c2-4f70-b18d-0f5c75ac0b27}; !- Zone Equipment Sequential Heating Fraction Schedule Name 1

OS:AdditionalProperties,
  {a8c71cdf-96eb-49a7-ae56-abe5c77f55ab}, !- Handle
  {00c82205-b663-4345-9b51-661b3f8f949c}, !- Object Name
  ObjectType,                             !- Feature Name 1
  String,                                 !- Feature Data Type 1
  conditioned space;                      !- Feature Value 1

OS:Space,
  {77eea170-eca3-4fff-92bd-72534aa7d7d6}, !- Handle
  conditioned space 1,                    !- Name
  ,                                       !- Space Type Name
  ,                                       !- Default Construction Set Name
  ,                                       !- Default Schedule Set Name
  ,                                       !- Direction of Relative North {deg}
  ,                                       !- X Origin {m}
  ,                                       !- Y Origin {m}
  ,                                       !- Z Origin {m}
  ,                                       !- Building Story Name
  {00c82205-b663-4345-9b51-661b3f8f949c}, !- Thermal Zone Name
  ,                                       !- Part of Total Floor Area
  ,                                       !- Design Specification Outdoor Air Object Name
  ,                                       !- Building Unit Name
  346.03186535424;                        !- Volume {m3}

OS:Schedule:Ruleset,
  {d7453eff-1ffe-4e89-97e0-b2308bcc0cae}, !- Handle
  heating setpoint,                       !- Name
  {82fdd1c1-d666-46a5-8065-c3954f65e129}, !- Schedule Type Limits Name
  {b6f92f4b-76b3-443c-8d84-27c766a5db55}; !- Default Day Schedule Name

OS:Schedule:Day,
  {b6f92f4b-76b3-443c-8d84-27c766a5db55}, !- Handle
  heating setpoint default day,           !- Name
  {82fdd1c1-d666-46a5-8065-c3954f65e129}, !- Schedule Type Limits Name
  ,                                       !- Interpolate to Timestep
  24,                                     !- Hour 1
  0,                                      !- Minute 1
  0;                                      !- Value Until Time 1

OS:Schedule:Rule,
  {711e11dd-7dd4-4a2b-b8b5-c4c8452e86c9}, !- Handle
  heating setpoint allday rule,           !- Name
  {d7453eff-1ffe-4e89-97e0-b2308bcc0cae}, !- Schedule Ruleset Name
  0,                                      !- Rule Order
  {59ba665d-4f89-42ed-b0da-b1c2068c5301}, !- Day Schedule Name
  Yes,                                    !- Apply Sunday
  Yes,                                    !- Apply Monday
  Yes,                                    !- Apply Tuesday
  Yes,                                    !- Apply Wednesday
  Yes,                                    !- Apply Thursday
  Yes,                                    !- Apply Friday
  Yes,                                    !- Apply Saturday
  DateRange,                              !- Date Specification Type
  1,                                      !- Start Month
  1,                                      !- Start Day
  12,                                     !- End Month
  31;                                     !- End Day

OS:Schedule:Day,
  {59ba665d-4f89-42ed-b0da-b1c2068c5301}, !- Handle
  heating setpoint day,                   !- Name
  {82fdd1c1-d666-46a5-8065-c3954f65e129}, !- Schedule Type Limits Name
  ,                                       !- Interpolate to Timestep
  24,                                     !- Hour 1
  0,                                      !- Minute 1
  20;                                     !- Value Until Time 1

OS:Schedule:Ruleset,
  {eedc0fbc-50b1-42a4-bff1-00907b4fd089}, !- Handle
  cooling setpoint,                       !- Name
  {82fdd1c1-d666-46a5-8065-c3954f65e129}, !- Schedule Type Limits Name
  {bac0dd30-f77b-4ac0-ba4b-1756ea5f1206}; !- Default Day Schedule Name

OS:Schedule:Day,
  {bac0dd30-f77b-4ac0-ba4b-1756ea5f1206}, !- Handle
  cooling setpoint default day,           !- Name
  {82fdd1c1-d666-46a5-8065-c3954f65e129}, !- Schedule Type Limits Name
  ,                                       !- Interpolate to Timestep
  24,                                     !- Hour 1
  0,                                      !- Minute 1
  0;                                      !- Value Until Time 1

OS:Schedule:Rule,
  {72a7fe1f-df5e-461d-b6d4-7af8c443177a}, !- Handle
  cooling setpoint allday rule,           !- Name
  {eedc0fbc-50b1-42a4-bff1-00907b4fd089}, !- Schedule Ruleset Name
  0,                                      !- Rule Order
  {90adbb14-2ecb-40dc-9477-79377ff89f8d}, !- Day Schedule Name
  Yes,                                    !- Apply Sunday
  Yes,                                    !- Apply Monday
  Yes,                                    !- Apply Tuesday
  Yes,                                    !- Apply Wednesday
  Yes,                                    !- Apply Thursday
  Yes,                                    !- Apply Friday
  Yes,                                    !- Apply Saturday
  DateRange,                              !- Date Specification Type
  1,                                      !- Start Month
  1,                                      !- Start Day
  12,                                     !- End Month
  31;                                     !- End Day

OS:Schedule:Day,
  {90adbb14-2ecb-40dc-9477-79377ff89f8d}, !- Handle
  cooling setpoint day,                   !- Name
  {82fdd1c1-d666-46a5-8065-c3954f65e129}, !- Schedule Type Limits Name
  ,                                       !- Interpolate to Timestep
  24,                                     !- Hour 1
  0,                                      !- Minute 1
  25.5555555555556;                       !- Value Until Time 1

OS:ThermostatSetpoint:DualSetpoint,
  {ee8ea26b-d53f-4595-b9b3-80e5bc6f1530}, !- Handle
  conditioned space temperature setpoint, !- Name
  {d7453eff-1ffe-4e89-97e0-b2308bcc0cae}, !- Heating Setpoint Temperature Schedule Name
  {eedc0fbc-50b1-42a4-bff1-00907b4fd089}, !- Cooling Setpoint Temperature Schedule Name
  0;                                      !- Temperature Difference Between Cutout And Setpoint {deltaC}

OS:ScheduleTypeLimits,
  {82fdd1c1-d666-46a5-8065-c3954f65e129}, !- Handle
  Temperature,                            !- Name
  ,                                       !- Lower Limit Value
  ,                                       !- Upper Limit Value
  Continuous,                             !- Numeric Type
  Temperature;                            !- Unit Type

OS:Surface,
  {917f111d-28e7-4f25-a734-abdf437a63c4}, !- Handle
  Wall1,                                  !- Name
  Wall,                                   !- Surface Type
  {f1767828-bd0d-4681-a0d5-3e383519bb2e}, !- Construction Name
  {77eea170-eca3-4fff-92bd-72534aa7d7d6}, !- Space Name
  Outdoors,                               !- Outside Boundary Condition
  ,                                       !- Outside Boundary Condition Object
  SunExposed,                             !- Sun Exposure
  WindExposed,                            !- Wind Exposure
  ,                                       !- View Factor to Ground
  ,                                       !- Number of Vertices
  -41.689655, 42.6186854, 0,              !- X,Y,Z Vertex 1 {m}
  -41.689655, 42.6186854, 2.4384,         !- X,Y,Z Vertex 2 {m}
  -29.775785, 42.6186854, 2.4384,         !- X,Y,Z Vertex 3 {m}
  -29.775785, 42.6186854, 0;              !- X,Y,Z Vertex 4 {m}

OS:AdditionalProperties,
  {5a6ff471-b3c9-4f77-bfc4-550cbbcc9e80}, !- Handle
  {917f111d-28e7-4f25-a734-abdf437a63c4}, !- Object Name
  Length,                                 !- Feature Name 1
  Double,                                 !- Feature Data Type 1
  39.087499999999999,                     !- Feature Value 1
  Azimuth,                                !- Feature Name 2
  Integer,                                !- Feature Data Type 2
  0,                                      !- Feature Value 2
  Tilt,                                   !- Feature Name 3
  Double,                                 !- Feature Data Type 3
  90,                                     !- Feature Value 3
  SurfaceType,                            !- Feature Name 4
  String,                                 !- Feature Data Type 4
  Wall;                                   !- Feature Value 4

OS:Material,
  {0861b83b-4544-4181-abf1-bb536e60d3d7}, !- Handle
  wood siding,                            !- Name
  Rough,                                  !- Roughness
  0.0254,                                 !- Thickness {m}
  0.1024175,                              !- Conductivity {W/m-K}
  544.68,                                 !- Density {kg/m3}
  1172.36,                                !- Specific Heat {J/kg-K}
  0.9,                                    !- Thermal Absorptance
  0.7,                                    !- Solar Absorptance
  0.7;                                    !- Visible Absorptance

OS:Material,
  {4791963d-fbca-4bad-8463-0aa546db60b4}, !- Handle
  osb sheathing 0.5 in.,                  !- Name
  Rough,                                  !- Roughness
  0.0127,                                 !- Thickness {m}
  0.1154577,                              !- Conductivity {W/m-K}
  512.64,                                 !- Density {kg/m3}
  1214.23,                                !- Specific Heat {J/kg-K}
  0.9,                                    !- Thermal Absorptance
  0.7,                                    !- Solar Absorptance
  0.7;                                    !- Visible Absorptance

OS:Material,
  {5df5905f-2ba4-4561-b859-e2c59d728035}, !- Handle
  wall stud and cavity,                   !- Name
  Rough,                                  !- Roughness
  0.1397,                                 !- Thickness {m}
  0.0929021674204099,                     !- Conductivity {W/m-K}
  139.0536,                               !- Density {kg/m3}
  1170.23755760369,                       !- Specific Heat {J/kg-K}
  0.9,                                    !- Thermal Absorptance
  0.7,                                    !- Solar Absorptance
  0.7;                                    !- Visible Absorptance

OS:Material,
  {41107a7a-8b83-45d3-93ea-2c77599ca6f4}, !- Handle
  gypsum board,                           !- Name
  Rough,                                  !- Roughness
  0.0127,                                 !- Thickness {m}
  0.1602906,                              !- Conductivity {W/m-K}
  801,                                    !- Density {kg/m3}
  837.4,                                  !- Specific Heat {J/kg-K}
  0.9,                                    !- Thermal Absorptance
  0.6,                                    !- Solar Absorptance
  0.6;                                    !- Visible Absorptance

OS:Construction,
  {f1767828-bd0d-4681-a0d5-3e383519bb2e}, !- Handle
  Wall1 construction,                     !- Name
  ,                                       !- Surface Rendering Name
  {0861b83b-4544-4181-abf1-bb536e60d3d7}, !- Layer 1
  {4791963d-fbca-4bad-8463-0aa546db60b4}, !- Layer 2
  {5df5905f-2ba4-4561-b859-e2c59d728035}, !- Layer 3
  {41107a7a-8b83-45d3-93ea-2c77599ca6f4}; !- Layer 4

OS:Surface,
  {43743078-e135-4e29-889f-18e82df67d08}, !- Handle
  Wall2,                                  !- Name
  Wall,                                   !- Surface Type
  {4cf70298-968b-4e55-862d-248ed7c84b21}, !- Construction Name
  {77eea170-eca3-4fff-92bd-72534aa7d7d6}, !- Space Name
  Outdoors,                               !- Outside Boundary Condition
  ,                                       !- Outside Boundary Condition Object
  SunExposed,                             !- Sun Exposure
  WindExposed,                            !- Wind Exposure
  ,                                       !- View Factor to Ground
  ,                                       !- Number of Vertices
  42.6186854, -36.6636554, 0,             !- X,Y,Z Vertex 1 {m}
  42.6186854, -36.6636554, 2.4384,        !- X,Y,Z Vertex 2 {m}
  42.6186854, -42.6186854, 2.4384,        !- X,Y,Z Vertex 3 {m}
  42.6186854, -42.6186854, 0;             !- X,Y,Z Vertex 4 {m}

OS:AdditionalProperties,
  {3cfa8065-00d2-456a-81e8-fa7c5fee5dbd}, !- Handle
  {43743078-e135-4e29-889f-18e82df67d08}, !- Object Name
  Length,                                 !- Feature Name 1
  Double,                                 !- Feature Data Type 1
  19.537500000000001,                     !- Feature Value 1
  Azimuth,                                !- Feature Name 2
  Integer,                                !- Feature Data Type 2
  90,                                     !- Feature Value 2
  Tilt,                                   !- Feature Name 3
  Double,                                 !- Feature Data Type 3
  90,                                     !- Feature Value 3
  SurfaceType,                            !- Feature Name 4
  String,                                 !- Feature Data Type 4
  Wall;                                   !- Feature Value 4

OS:Construction,
  {4cf70298-968b-4e55-862d-248ed7c84b21}, !- Handle
  Wall2 construction,                     !- Name
  ,                                       !- Surface Rendering Name
  {0861b83b-4544-4181-abf1-bb536e60d3d7}, !- Layer 1
  {4791963d-fbca-4bad-8463-0aa546db60b4}, !- Layer 2
  {5df5905f-2ba4-4561-b859-e2c59d728035}, !- Layer 3
  {41107a7a-8b83-45d3-93ea-2c77599ca6f4}; !- Layer 4

OS:Surface,
  {698b4be5-afca-4f9c-a511-e121986c1c01}, !- Handle
  Wall3,                                  !- Name
  Wall,                                   !- Surface Type
  {1013c96e-bca5-491d-9535-510dd0fb98fc}, !- Construction Name
  {77eea170-eca3-4fff-92bd-72534aa7d7d6}, !- Space Name
  Outdoors,                               !- Outside Boundary Condition
  ,                                       !- Outside Boundary Condition Object
  SunExposed,                             !- Sun Exposure
  WindExposed,                            !- Wind Exposure
  ,                                       !- View Factor to Ground
  ,                                       !- Number of Vertices
  -29.6238419715142, -42.6186854, 0,      !- X,Y,Z Vertex 1 {m}
  -29.6238419715142, -42.6186854, 2.4384, !- X,Y,Z Vertex 2 {m}
  -40.7757119715142, -42.6186854, 2.4384, !- X,Y,Z Vertex 3 {m}
  -40.7757119715142, -42.6186854, 0;      !- X,Y,Z Vertex 4 {m}

OS:AdditionalProperties,
  {b245847b-a0a7-4033-9e2e-d82f9be984e3}, !- Handle
  {698b4be5-afca-4f9c-a511-e121986c1c01}, !- Object Name
  Length,                                 !- Feature Name 1
  Double,                                 !- Feature Data Type 1
  36.587499999999999,                     !- Feature Value 1
  Azimuth,                                !- Feature Name 2
  Integer,                                !- Feature Data Type 2
  180,                                    !- Feature Value 2
  Tilt,                                   !- Feature Name 3
  Double,                                 !- Feature Data Type 3
  90,                                     !- Feature Value 3
  SurfaceType,                            !- Feature Name 4
  String,                                 !- Feature Data Type 4
  Wall;                                   !- Feature Value 4

OS:Construction,
  {1013c96e-bca5-491d-9535-510dd0fb98fc}, !- Handle
  Wall3 construction,                     !- Name
  ,                                       !- Surface Rendering Name
  {0861b83b-4544-4181-abf1-bb536e60d3d7}, !- Layer 1
  {4791963d-fbca-4bad-8463-0aa546db60b4}, !- Layer 2
  {5df5905f-2ba4-4561-b859-e2c59d728035}, !- Layer 3
  {41107a7a-8b83-45d3-93ea-2c77599ca6f4}; !- Layer 4

OS:Surface,
  {5f4fb122-4302-4f9c-8a9b-229aa8ec1b8b}, !- Handle
  Wall4,                                  !- Name
  Wall,                                   !- Surface Type
  {c36a577f-30df-40eb-b812-b3b02fb9de46}, !- Construction Name
  {77eea170-eca3-4fff-92bd-72534aa7d7d6}, !- Space Name
  Outdoors,                               !- Outside Boundary Condition
  ,                                       !- Outside Boundary Condition Object
  SunExposed,                             !- Sun Exposure
  WindExposed,                            !- Wind Exposure
  ,                                       !- View Factor to Ground
  ,                                       !- Number of Vertices
  -42.6186854, 36.6636554, 0,             !- X,Y,Z Vertex 1 {m}
  -42.6186854, 36.6636554, 2.4384,        !- X,Y,Z Vertex 2 {m}
  -42.6186854, 42.6186854, 2.4384,        !- X,Y,Z Vertex 3 {m}
  -42.6186854, 42.6186854, 0;             !- X,Y,Z Vertex 4 {m}

OS:AdditionalProperties,
  {84dcc208-4583-4bcf-bf6f-b95388e04c77}, !- Handle
  {5f4fb122-4302-4f9c-8a9b-229aa8ec1b8b}, !- Object Name
  Length,                                 !- Feature Name 1