
OS:Version,
  {78ae71ea-4392-4e61-b32d-3fcdb79fdd16}, !- Handle
  3.9.0;                                  !- Version Identifier

OS:SimulationControl,
  {c7c135ad-b9d8-4c4b-a9b3-86e52b896ec8}, !- Handle
  ,                                       !- Do Zone Sizing Calculation
  ,                                       !- Do System Sizing Calculation
  ,                                       !- Do Plant Sizing Calculation
  No;                                     !- Run Simulation for Sizing Periods

OS:Timestep,
  {8c10b9ec-1ec3-4c08-873c-435809c5dfdb}, !- Handle
  1;                                      !- Number of Timesteps per Hour

OS:ShadowCalculation,
  {20be6b84-98b1-4ebe-9725-378b70995c4f}, !- Handle
  PolygonClipping,                        !- Shading Calculation Method
  ,                                       !- Shading Calculation Update Frequency Method
  20,                                     !- Shading Calculation Update Frequency
  200,                                    !- Maximum Figures in Shadow Overlap Calculations
  ,                                       !- Polygon Clipping Algorithm
  512,                                    !- Pixel Counting Resolution
  ,                                       !- Sky Diffuse Modeling Algorithm
  No,                                     !- Output External Shading Calculation Results
  No,                                     !- Disable Self-Shading Within Shading Zone Groups
  No;                                     !- Disable Self-Shading From Shading Zone Groups to Other Zones

OS:SurfaceConvectionAlgorithm:Outside,
  {d32f3221-31c9-445e-a49f-04efd4be716b}, !- Handle
  DOE-2;                                  !- Algorithm

OS:SurfaceConvectionAlgorithm:Inside,
  {a3a706c6-12de-41fb-a93d-45b3919d3fe2}, !- Handle
  TARP;                                   !- Algorithm

OS:ZoneCapacitanceMultiplier:ResearchSpecial,
  {26e850c4-2fe1-4cf0-9196-f3a72c61f3e3}, !- Handle
  7,                                      !- Temperature Capacity Multiplier
  15,                                     !- Humidity Capacity Multiplier
  ;                                       !- Carbon Dioxide Capacity Multiplier

OS:ConvergenceLimits,
  {eda80b67-5183-43cb-8cca-c217f69616d9}, !- Handle
  0;                                      !- Minimum System Timestep {minutes}

OS:RunPeriod,
  {fca1bcf8-2538-4211-b022-6b46b808c47d}, !- Handle
  Run Period 1,                           !- Name
  1,                                      !- Begin Month
  1,                                      !- Begin Day of Month
  12,                                     !- End Month
  31,                                     !- End Day of Month
  ,                                       !- Use Weather File Holidays and Special Days
  ,                                       !- Use Weather File Daylight Saving Period
  ,                                       !- Apply Weekend Holiday Rule
  ,                                       !- Use Weather File Rain Indicators
  ,                                       !- Use Weather File Snow Indicators
  ;                                       !- Number of Times Runperiod to be Repeated

OS:PerformancePrecisionTradeoffs,
  {dccb9f9c-deaf-4fd3-ac98-6b717b576fd9}, !- Handle
  ,                                       !- Use Coil Direct Solutions
  CarrollMRT;                             !- Zone Radiant Exchange Algorithm

OS:WeatherFile,
  {4ea7596a-5bbe-43b5-b834-582594913368}, !- Handle
  Buffalo Niagara Intl Ap,                !- City
  NY,                                     !- State Province Region
  USA,                                    !- Country
  TMY3,                                   !- Data Source
  725280,                                 !- WMO Number
  42.93,                                  !- Latitude {deg}
  -78.73,                                 !- Longitude {deg}
  -5,                                     !- Time Zone {hr}
  215,                                    !- Elevation {m}
  /Users/nmoore/github/urbanopt-example-geojson-project/example_project/weather/USA_NY_Buffalo-Greater.Buffalo.Intl.AP.725280_TMY3.epw, !- Url
  6B50E0FF,                               !- Checksum
  ,                                       !- Start Date Actual Year
  Sunday;                                 !- Start Day of Week

OS:YearDescription,
  {a7efac98-55a6-40c4-a5b0-e999840c047a}, !- Handle
  2007,                                   !- Calendar Year
  ,                                       !- Day of Week for Start Day
  ;                                       !- Is Leap Year

OS:Site,
  {18e29f13-a8b6-4b90-b902-9c7dcb1f7ca5}, !- Handle
  Buffalo Niagara Intl Ap_NY,             !- Name
  42.93,                                  !- Latitude {deg}
  -78.73,                                 !- Longitude {deg}
  -5,                                     !- Time Zone {hr}
  215,                                    !- Elevation {m}
  Suburbs,                                !- Terrain
  Yes;                                    !- Keep Site Location Information

OS:RunPeriodControl:DaylightSavingTime,
  {16ecebe2-99cd-4417-b748-8d96f721e34a}, !- Handle
  Mar 12,                                 !- Start Date
  Nov 5;                                  !- End Date

OS:Site:GroundTemperature:Shallow,
  {b55963b5-0e7a-4a13-b245-01542c04588f}, !- Handle
  4.30207395723828,                       !- January Surface Ground Temperature {C}
  2.29327249652502,                       !- February Surface Ground Temperature {C}
  2.13240047156047,                       !- March Surface Ground Temperature {C}
  3.08567940719286,                       !- April Surface Ground Temperature {C}
  6.91256312497526,                       !- May Surface Ground Temperature {C}
  10.7216195949507,                       !- June Surface Ground Temperature {C}
  14.0238679822574,                       !- July Surface Ground Temperature {C}
  16.1157611184724,                       !- August Surface Ground Temperature {C}
  16.2934789303462,                       !- September Surface Ground Temperature {C}
  14.5920754632847,                       !- October Surface Ground Temperature {C}
  11.374036348653,                        !- November Surface Ground Temperature {C}
  7.68182621661674;                       !- December Surface Ground Temperature {C}

OS:ThermalZone,
  {fa5eebfe-aac6-4d93-9073-57f080b32d0e}, !- Handle
  conditioned space,                      !- Name
  1,                                      !- Multiplier
  ,                                       !- Ceiling Height {m}
  692.06373070848,                        !- Volume {m3}
  ,                                       !- Floor Area {m2}
  ,                                       !- Zone Inside Convection Algorithm
  ,                                       !- Zone Outside Convection Algorithm
  ,                                       !- Zone Conditioning Equipment List Name
  {3ff346d4-9f19-4950-8f63-fba00274c1eb}, !- Zone Air Inlet Port List
  {d6457fbe-28ee-4e29-9487-ac74d943a27f}, !- Zone Air Exhaust Port List
  {2c81f8a9-48ba-4683-ae61-2a1974bf8e06}, !- Zone Air Node Name
  {2373a4ba-2228-4919-9f17-dbde6e22daf7}, !- Zone Return Air Port List
  ,                                       !- Primary Daylighting Control Name
  ,                                       !- Fraction of Zone Controlled by Primary Daylighting Control
  ,                                       !- Secondary Daylighting Control Name
  ,                                       !- Fraction of Zone Controlled by Secondary Daylighting Control
  ,                                       !- Illuminance Map Name
  ,                                       !- Group Rendering Name
  {5ee01c1a-9923-421e-b434-7f695ab233b4}, !- Thermostat Name
  No;                                     !- Use Ideal Air Loads

OS:Node,
  {7781b746-a1b6-40ca-8cf8-591a00a4e2ed}, !- Handle
  Node 1,                                 !- Name
  {2c81f8a9-48ba-4683-ae61-2a1974bf8e06}, !- Inlet Port
  ;                                       !- Outlet Port

OS:Connection,
  {2c81f8a9-48ba-4683-ae61-2a1974bf8e06}, !- Handle
  {fa5eebfe-aac6-4d93-9073-57f080b32d0e}, !- Source Object
  11,                                     !- Outlet Port
  {7781b746-a1b6-40ca-8cf8-591a00a4e2ed}, !- Target Object
  2;                                      !- Inlet Port

OS:PortList,
  {3ff346d4-9f19-4950-8f63-fba00274c1eb}, !- Handle
  {fa5eebfe-aac6-4d93-9073-57f080b32d0e}, !- HVAC Component
  {08429087-dae7-4195-9fff-b28493b2d563}; !- Port 1

OS:PortList,
  {d6457fbe-28ee-4e29-9487-ac74d943a27f}, !- Handle
  {fa5eebfe-aac6-4d93-9073-57f080b32d0e}; !- HVAC Component

OS:PortList,
  {2373a4ba-2228-4919-9f17-dbde6e22daf7}, !- Handle
  {fa5eebfe-aac6-4d93-9073-57f080b32d0e}, !- HVAC Component
  {a7366a20-0a59-4394-b0b2-96f9c6c6c4f2}; !- Port 1

OS:Sizing:Zone,
  {659ca9a2-b5da-471a-956e-ac542303fba8}, !- Handle
  {fa5eebfe-aac6-4d93-9073-57f080b32d0e}, !- Zone or ZoneList Name
  SupplyAirTemperature,                   !- Zone Cooling Design Supply Air Temperature Input Method
  14,                                     !- Zone Cooling Design Supply Air Temperature {C}
  11.11,                                  !- Zone Cooling Design Supply Air Temperature Difference {deltaC}
  SupplyAirTemperature,                   !- Zone Heating Design Supply Air Temperature Input Method
  40,                                     !- Zone Heating Design Supply Air Temperature {C}
  11.11,                                  !- Zone Heating Design Supply Air Temperature Difference {deltaC}
  0.0085,                                 !- Zone Cooling Design Supply Air Humidity Ratio {kg-H2O/kg-air}
  0.008,                                  !- Zone Heating Design Supply Air Humidity Ratio {kg-H2O/kg-air}
  ,                                       !- Zone Heating Sizing Factor
  ,                                       !- Zone Cooling Sizing Factor
  DesignDay,                              !- Cooling Design Air Flow Method
  ,                                       !- Cooling Design Air Flow Rate {m3/s}
  ,                                       !- Cooling Minimum Air Flow per Zone Floor Area {m3/s-m2}
  ,                                       !- Cooling Minimum Air Flow {m3/s}
  ,                                       !- Cooling Minimum Air Flow Fraction
  DesignDay,                              !- Heating Design Air Flow Method
  ,                                       !- Heating Design Air Flow Rate {m3/s}
  ,                                       !- Heating Maximum Air Flow per Zone Floor Area {m3/s-m2}
  ,                                       !- Heating Maximum Air Flow {m3/s}
  ,                                       !- Heating Maximum Air Flow Fraction
  No,                                     !- Account for Dedicated Outdoor Air System
  NeutralSupplyAir,                       !- Dedicated Outdoor Air System Control Strategy
  autosize,                               !- Dedicated Outdoor Air Low Setpoint Temperature for Design {C}
  autosize,                               !- Dedicated Outdoor Air High Setpoint Temperature for Design {C}
  Sensible Load Only No Latent Load,      !- Zone Load Sizing Method
  HumidityRatioDifference,                !- Zone Latent Cooling Design Supply Air Humidity Ratio Input Method
  ,                                       !- Zone Dehumidification Design Supply Air Humidity Ratio {kgWater/kgDryAir}
  0.005,                                  !- Zone Cooling Design Supply Air Humidity Ratio Difference {kgWater/kgDryAir}
  HumidityRatioDifference,                !- Zone Latent Heating Design Supply Air Humidity Ratio Input Method
  ,                                       !- Zone Humidification Design Supply Air Humidity Ratio {kgWater/kgDryAir}
  0.005,                                  !- Zone Humidification Design Supply Air Humidity Ratio Difference {kgWater/kgDryAir}
  ,                                       !- Zone Humidistat Dehumidification Set Point Schedule Name
  ,                                       !- Zone Humidistat Humidification Set Point Schedule Name
  ,                                       !- Design Zone Air Distribution Effectiveness in Cooling Mode
  ,                                       !- Design Zone Air Distribution Effectiveness in Heating Mode
  ,                                       !- Design Zone Secondary Recirculation Fraction {dimensionless}
  ,                                       !- Design Minimum Zone Ventilation Efficiency {dimensionless}
  Coincident;                             !- Sizing Option

OS:ZoneHVAC:EquipmentList,
  {3b7066d7-8a31-4d2b-b3a8-1137a473ba10}, !- Handle
  Zone HVAC Equipment List 1,             !- Name
  {fa5eebfe-aac6-4d93-9073-57f080b32d0e}, !- Thermal Zone
  ,                                       !- Load Distribution Scheme
  {a4d0860a-6f72-4189-97c4-aeecb327e3da}, !- Zone Equipment 1
  1,                                      !- Zone Equipment Cooling Sequence 1
  1,                                      !- Zone Equipment Heating or No-Load Sequence 1
  {bc2a141f-bc9f-49f9-93e4-3fb46755a1d0}, !- Zone Equipment Sequential Cooling Fraction Schedule Name 1
  {9c6efdad-c625-4ba1-a7e9-b307bbe780a8}, !- Zone Equipment Sequential Heating Fraction Schedule Name 1
  {3d4e9b00-02e2-47bd-8a88-d272816d8ceb}, !- Zone Equipment 2
  2,                                      !- Zone Equipment Cooling Sequence 2
  2,                                      !- Zone Equipment Heating or No-Load Sequence 2
  {3643388d-1053-4176-81a0-a24b18480046}, !- Zone Equipment Sequential Cooling Fraction Schedule Name 2
  {9c37e833-1c8e-49dd-99ce-c99f800d5ff5}; !- Zone Equipment Sequential Heating Fraction Schedule Name 2

OS:AdditionalProperties,
  {7dab9791-4aba-4685-8456-8aabc70ae472}, !- Handle
  {fa5eebfe-aac6-4d93-9073-57f080b32d0e}, !- Object Name
  ObjectType,                             !- Feature Name 1
  String,                                 !- Feature Data Type 1
  conditioned space;                      !- Feature Value 1

OS:Space,
  {f33bc423-b43c-4de5-9664-e82b200ce64c}, !- Handle
  conditioned space 1,                    !- Name
  ,                                       !- Space Type Name
  ,                                       !- Default Construction Set Name
  ,                                       !- Default Schedule Set Name
  ,                                       !- Direction of Relative North {deg}
  ,                                       !- X Origin {m}
  ,                                       !- Y Origin {m}
  ,                                       !- Z Origin {m}
  ,                                       !- Building Story Name
  {fa5eebfe-aac6-4d93-9073-57f080b32d0e}, !- Thermal Zone Name
  ,                                       !- Part of Total Floor Area
  ,                                       !- Design Specification Outdoor Air Object Name
  ,                                       !- Building Unit Name
  692.06373070848;                        !- Volume {m3}

OS:Schedule:Ruleset,
  {681f1e4e-a1f2-495e-b26d-dacef4f6530d}, !- Handle
  heating setpoint,                       !- Name
  {3c6d1d4b-9614-4a3f-8f11-1d54889dc8ca}, !- Schedule Type Limits Name
  {748dcb09-3f3e-48cb-ac9b-32ce048d579d}; !- Default Day Schedule Name

OS:Schedule:Day,
  {748dcb09-3f3e-48cb-ac9b-32ce048d579d}, !- Handle
  heating setpoint default day,           !- Name
  {3c6d1d4b-9614-4a3f-8f11-1d54889dc8ca}, !- Schedule Type Limits Name
  ,                                       !- Interpolate to Timestep
  24,                                     !- Hour 1
  0,                                      !- Minute 1
  0;                                      !- Value Until Time 1

OS:Schedule:Rule,
  {67536aa4-4656-4869-8b8d-c2c5fed1bfd0}, !- Handle
  heating setpoint allday rule,           !- Name
  {681f1e4e-a1f2-495e-b26d-dacef4f6530d}, !- Schedule Ruleset Name
  0,                                      !- Rule Order
  {3b6191b5-98dd-436b-b099-683d6281763d}, !- Day Schedule Name
  Yes,                                    !- Apply Sunday
  Yes,                                    !- Apply Monday
  Yes,                                    !- Apply Tuesday
  Yes,                                    !- Apply Wednesday
  Yes,                                    !- Apply Thursday
  Yes,                                    !- Apply Friday
  Yes,                                    !- Apply Saturday
  DateRange,                              !- Date Specification Type
  1,                                      !- Start Month
  1,                                      !- Start Day
  12,                                     !- End Month
  31;                                     !- End Day

OS:Schedule:Day,
  {3b6191b5-98dd-436b-b099-683d6281763d}, !- Handle
  heating setpoint day,                   !- Name
  {3c6d1d4b-9614-4a3f-8f11-1d54889dc8ca}, !- Schedule Type Limits Name
  ,                                       !- Interpolate to Timestep
  24,                                     !- Hour 1
  0,                                      !- Minute 1
  20;                                     !- Value Until Time 1

OS:Schedule:Ruleset,
  {13fcfe42-fb7d-43c7-8bfa-3d757dec5320}, !- Handle
  cooling setpoint,                       !- Name
  {3c6d1d4b-9614-4a3f-8f11-1d54889dc8ca}, !- Schedule Type Limits Name
  {cf4278dc-7ee6-4694-b072-3e870f409220}; !- Default Day Schedule Name

OS:Schedule:Day,
  {cf4278dc-7ee6-4694-b072-3e870f409220}, !- Handle
  cooling setpoint default day,           !- Name
  {3c6d1d4b-9614-4a3f-8f11-1d54889dc8ca}, !- Schedule Type Limits Name
  ,                                       !- Interpolate to Timestep
  24,                                     !- Hour 1
  0,                                      !- Minute 1
  0;                                      !- Value Until Time 1

OS:Schedule:Rule,
  {f91587ca-fd9e-4677-9a04-77663a5ad3ce}, !- Handle
  cooling setpoint allday rule,           !- Name
  {13fcfe42-fb7d-43c7-8bfa-3d757dec5320}, !- Schedule Ruleset Name
  0,                                      !- Rule Order
  {2abd913e-82a9-4ce3-8830-f5d625444249}, !- Day Schedule Name
  Yes,                                    !- Apply Sunday
  Yes,                                    !- Apply Monday
  Yes,                                    !- Apply Tuesday
  Yes,                                    !- Apply Wednesday
  Yes,                                    !- Apply Thursday
  Yes,                                    !- Apply Friday
  Yes,                                    !- Apply Saturday
  DateRange,                              !- Date Specification Type
  1,                                      !- Start Month
  1,                                      !- Start Day
  12,                                     !- End Month
  31;                                     !- End Day

OS:Schedule:Day,
  {2abd913e-82a9-4ce3-8830-f5d625444249}, !- Handle
  cooling setpoint day,                   !- Name
  {3c6d1d4b-9614-4a3f-8f11-1d54889dc8ca}, !- Schedule Type Limits Name
  ,                                       !- Interpolate to Timestep
  24,                                     !- Hour 1
  0,                                      !- Minute 1
  25.5555555555556;                       !- Value Until Time 1

OS:ThermostatSetpoint:DualSetpoint,
  {5ee01c1a-9923-421e-b434-7f695ab233b4}, !- Handle
  conditioned space temperature setpoint, !- Name
  {681f1e4e-a1f2-495e-b26d-dacef4f6530d}, !- Heating Setpoint Temperature Schedule Name
  {13fcfe42-fb7d-43c7-8bfa-3d757dec5320}, !- Cooling Setpoint Temperature Schedule Name
  0;                                      !- Temperature Difference Between Cutout And Setpoint {deltaC}

OS:ScheduleTypeLimits,
  {3c6d1d4b-9614-4a3f-8f11-1d54889dc8ca}, !- Handle
  Temperature,                            !- Name
  ,                                       !- Lower Limit Value
  ,                                       !- Upper Limit Value
  Continuous,                             !- Numeric Type
  Temperature;                            !- Unit Type

OS:Surface,
  {a90d6bca-1b7b-46b3-83d6-9917da4533e7}, !- Handle
  Roof1,                                  !- Name
  RoofCeiling,                            !- Surface Type
  {8b109908-ca1c-4a5a-b5c0-1e1465511460}, !- Construction Name
  {393f0439-aaa7-4f13-9e78-01a085094b81}, !- Space Name
  Outdoors,                               !- Outside Boundary Condition
  ,                                       !- Outside Boundary Condition Object
  SunExposed,                             !- Sun Exposure
  WindExposed,                            !- Wind Exposure
  ,                                       !- View Factor to Ground
  ,                                       !- Number of Vertices
  -26.9347048849634, 58.0557891618865, 2.4384, !- X,Y,Z Vertex 1 {m}
  -26.9347048849634, 46.7895631136661, 8.0715130241102, !- X,Y,Z Vertex 2 {m}
  -14.3386812381136, 46.7895631136661, 8.0715130241102, !- X,Y,Z Vertex 3 {m}
  -14.3386812381136, 58.0557891618865, 2.4384; !- X,Y,Z Vertex 4 {m}

OS:AdditionalProperties,
  {2e7a5618-1c08-4fc5-8c0f-675fb7732dcb}, !- Handle
  {a90d6bca-1b7b-46b3-83d6-9917da4533e7}, !- Object Name
  Length,                                 !- Feature Name 1
  Double,                                 !- Feature Data Type 1
  41.325536899113608,                     !- Feature Value 1
  Width,                                  !- Feature Name 2
  Double,                                 !- Feature Data Type 2
  41.325536899113601,                     !- Feature Value 2
  Azimuth,                                !- Feature Name 3
  Integer,                                !- Feature Data Type 3
  0,                                      !- Feature Value 3
  Tilt,                                   !- Feature Name 4
  Double,                                 !- Feature Data Type 4
  0.5,                                    !- Feature Value 4
  SurfaceType,                            !- Feature Name 5
  String,                                 !- Feature Data Type 5
  Roof;                                   !- Feature Value 5

OS:ThermalZone,
  {0f6a4ef8-d43d-40b4-be18-75b82cc58043}, !- Handle
  attic - vented,                         !- Name
  1,                                      !- Multiplier
  ,                                       !- Ceiling Height {m}
  356.389957095237,                       !- Volume {m3}
  ,                                       !- Floor Area {m2}
  ,                                       !- Zone Inside Convection Algorithm
  ,                                       !- Zone Outside Convection Algorithm
  ,                                       !- Zone Conditioning Equipment List Name
  {cf0834dd-a03f-4cd8-b16a-ba71bff4f0a9}, !- Zone Air Inlet Port List
  {8f360847-d5b6-46e1-b619-7f849fd5eb04}, !- Zone Air Exhaust Port List
  {34288c6f-b3f0-47d7-bd4a-8181d4e093a7}, !- Zone Air Node Name
  {a57ea3a1-6123-4f1e-9963-308524cfcc5b}, !- Zone Return Air Port List
  ,                                       !- Primary Daylighting Control Name
  ,                                       !- Fraction of Zone Controlled by Primary Daylighting Control
  ,                                       !- Secondary Daylighting Control Name
  ,                                       !- Fraction of Zone Controlled by Secondary Daylighting Control
  ,                                       !- Illuminance Map Name
  ,                                       !- Group Rendering Name
  ,                                       !- Thermostat Name
  No;                                     !- Use Ideal Air Loads

OS:Node,
  {20382580-e86e-477a-baa9-a8fdb69d13a1}, !- Handle
  Node 2,                                 !- Name
  {34288c6f-b3f0-47d7-bd4a-8181d4e093a7}, !- Inlet Port
  ;                                       !- Outlet Port

OS:Connection,
  {34288c6f-b3f0-47d7-bd4a-8181d4e093a7}, !- Handle
  {0f6a4ef8-d43d-40b4-be18-75b82cc58043}, !- Source Object
  11,                                     !- Outlet Port
  {20382580-e86e-477a-baa9-a8fdb69d13a1}, !- Target Object
  2;                                      !- Inlet Port

OS:PortList,
  {cf0834dd-a03f-4cd8-b16a-ba71bff4f0a9}, !- Handle
  {0f6a4ef8-d43d-40b4-be18-75b82cc58043}; !- HVAC Component

OS:PortList,
  {8f360847-d5b6-46e1-b619-7f849fd5eb04}, !- Handle
  {0f6a4ef8-d43d-40b4-be18-75b82cc58043}; !- HVAC Component

OS:PortList,
  {a57ea3a1-6123-4f1e-9963-308524cfcc5b}, !- Handle
  {0f6a4ef8-d43d-40b4-be18-75b82cc58043}; !- HVAC Component

OS:Sizing:Zone,
  {c43185bd-0e29-4d57-8394-358be26b634d}, !- Handle
  {0f6a4ef8-d43d-40b4-be18-75b82cc58043}, !- Zone or ZoneList Name
  SupplyAirTemperature,                   !- Zone Cooling Design Supply Air Temperature Input Method
  14,                                     !- Zone Cooling Design Supply Air Temperature {C}
  11.11,                                  !- Zone Cooling Design Supply Air Temperature Difference {deltaC}
  SupplyAirTemperature,                   !- Zone Heating Design Supply Air Temperature Input Method
  40,                                     !- Zone Heating Design Supply Air Temperature {C}
  11.11,                                  !- Zone Heating Design Supply Air Temperature Difference {deltaC}
  0.0085,                                 !- Zone Cooling Design Supply Air Humidity Ratio {kg-H2O/kg-air}
  0.008,                                  !- Zone Heating Design Supply Air Humidity Ratio {kg-H2O/kg-air}
  ,                                       !- Zone Heating Sizing Factor
  ,                                       !- Zone Cooling Sizing Factor
  DesignDay,                              !- Cooling Design Air Flow Method
  ,                                       !- Cooling Design Air Flow Rate {m3/s}
  ,                                       !- Cooling Minimum Air Flow per Zone Floor Area {m3/s-m2}
  ,                                       !- Cooling Minimum Air Flow {m3/s}
  ,                                       !- Cooling Minimum Air Flow Fraction
  DesignDay,                              !- Heating Design Air Flow Method
  ,                                       !- Heating Design Air Flow Rate {m3/s}
  ,                                       !- Heating Maximum Air Flow per Zone Floor Area {m3/s-m2}
  ,                                       !- Heating Maximum Air Flow {m3/s}
  ,                                       !- Heating Maximum Air Flow Fraction
  No,                                     !- Account for Dedicated Outdoor Air System
  NeutralSupplyAir,                       !- Dedicated Outdoor Air System Control Strategy
  autosize,                               !- Dedicated Outdoor Air Low Setpoint Temperature for Design {C}
  autosize,                               !- Dedicated Outdoor Air High Setpoint Temperature for Design {C}
  Sensible Load Only No Latent Load,      !- Zone Load Sizing Method
  HumidityRatioDifference,                !- Zone Latent Cooling Design Supply Air Humidity Ratio Input Method
  ,                                       !- Zone Dehumidification Design Supply Air Humidity Ratio {kgWater/kgDryAir}
  0.005,                                  !- Zone Cooling Design Supply Air Humidity Ratio Difference {kgWater/kgDryAir}
  HumidityRatioDifference,                !- Zone Latent Heating Design Supply Air Humidity Ratio Input Method
  ,                                       !- Zone Humidification Design Supply Air Humidity Ratio {kgWater/kgDryAir}
  0.005,                                  !- Zone Humidification Design Supply Air Humidity Ratio Difference {kgWater/kgDryAir}
  ,                                       !- Zone Humidistat Dehumidification Set Point Schedule Name
  ,                                       !- Zone Humidistat Humidification Set Point Schedule Name
  ,                                       !- Design Zone Air Distribution Effectiveness in Cooling Mode
  ,                                       !- Design Zone Air Distribution Effectiveness in Heating Mode
  ,                                       !- Design Zone Secondary Recirculation Fraction {dimensionless}
  ,                                       !- Design Minimum Zone Ventilation Efficiency {dimensionless}
  Coincident;                             !- Sizing Option

OS:ZoneHVAC:EquipmentList,
  {88e876d5-b240-432c-83bd-27cc0695dc3b}, !- Handle
  Zone HVAC Equipment List 2,             !- Name
  {0f6a4ef8-d43d-40b4-be18-75b82cc58043}; !- Thermal Zone

OS:AdditionalProperties,
  {2f9766ef-25a7-4b56-b89a-1f3e06b5339b}, !- Handle
  {0f6a4ef8-d43d-40b4-be18-75b82cc58043}, !- Object Name
  ObjectType,                             !- Feature Name 1
  String,                                 !- Feature Data Type 1
  attic - vented;                         !- Feature Value 1

OS:Space,
  {393f0439-aaa7-4f13-9e78-01a085094b81}, !- Handle
  attic - vented 1,                       !- Name
  ,                                       !- Space Type Name
  ,                                       !- Default Construction Set Name
  ,                                       !- Default Schedule Set Name
  ,                                       !- Direction of Relative North {deg}
  ,                                       !- X Origin {m}
  ,                                       !- Y Origin {m}
  ,                                       !- Z Origin {m}
  ,                                       !- Building Story Name
  {0f6a4ef8-d43d-40b4-be18-75b82cc58043}, !- Thermal Zone Name
  ,                                       !- Part of Total Floor Area
  ,                                       !- Design Specification Outdoor Air Object Name
  ,                                       !- Building Unit Name
  356.389957095237;                       !- Volume {m3}

OS:Material,
  {21970002-8cb9-4ff0-ab88-d366cca6377f}, !- Handle
  asphalt or fiberglass shingles,         !- Name