
OS:Version,
  {57f1e91d-1b06-4582-bdf0-c2ecdfb8c221}, !- Handle
  3.10.0;                                 !- Version Identifier

OS:SimulationControl,
  {770f54fb-f895-4ccb-b917-677a3d483c07}, !- Handle
  ,                                       !- Do Zone Sizing Calculation
  ,                                       !- Do System Sizing Calculation
  ,                                       !- Do Plant Sizing Calculation
  No;                                     !- Run Simulation for Sizing Periods

OS:Timestep,
  {fdbb48df-94e2-49fe-ac4f-f441f60e37c3}, !- Handle
  1;                                      !- Number of Timesteps per Hour

OS:ShadowCalculation,
  {6a9e55c6-f7eb-43c1-8d9b-6dccc2795788}, !- Handle
  PolygonClipping,                        !- Shading Calculation Method
  ,                                       !- Shading Calculation Update Frequency Method
  20,                                     !- Shading Calculation Update Frequency
  200,                                    !- Maximum Figures in Shadow Overlap Calculations
  ,                                       !- Polygon Clipping Algorithm
  512,                                    !- Pixel Counting Resolution
  ,                                       !- Sky Diffuse Modeling Algorithm
  No,                                     !- Output External Shading Calculation Results
  No,                                     !- Disable Self-Shading Within Shading Zone Groups
  No;                                     !- Disable Self-Shading From Shading Zone Groups to Other Zones

OS:SurfaceConvectionAlgorithm:Outside,
  {5992e7cd-7f76-4900-890c-56cab567107c}, !- Handle
  DOE-2;                                  !- Algorithm

OS:SurfaceConvectionAlgorithm:Inside,
  {4cab4427-bdce-4593-aa6d-ee89e2725e61}, !- Handle
  TARP;                                   !- Algorithm

OS:ZoneCapacitanceMultiplier:ResearchSpecial,
  {b2a056c2-8930-46f7-923f-62e60d6013e0}, !- Handle
  7,                                      !- Temperature Capacity Multiplier
  15,                                     !- Humidity Capacity Multiplier
  ;                                       !- Carbon Dioxide Capacity Multiplier

OS:ConvergenceLimits,
  {9877dc56-389c-46d0-90d9-b244f99149d8}, !- Handle
  0;                                      !- Minimum System Timestep {minutes}

OS:RunPeriod,
  {821ee240-d37f-4f21-9a6c-e578102d76ba}, !- Handle
  Run Period 1,                           !- Name
  1,                                      !- Begin Month
  1,                                      !- Begin Day of Month
  12,                                     !- End Month
  31,                                     !- End Day of Month
  ,                                       !- Use Weather File Holidays and Special Days
  ,                                       !- Use Weather File Daylight Saving Period
  ,                                       !- Apply Weekend Holiday Rule
  ,                                       !- Use Weather File Rain Indicators
  ,                                       !- Use Weather File Snow Indicators
  ;                                       !- Number of Times Runperiod to be Repeated

OS:PerformancePrecisionTradeoffs,
  {de014830-2ecc-4b99-a10e-818e1c8c6ad3}, !- Handle
  ,                                       !- Use Coil Direct Solutions
  CarrollMRT;                             !- Zone Radiant Exchange Algorithm

OS:WeatherFile,
  {64e8468f-e08f-49fe-acfc-b2761ff59954}, !- Handle
  Buffalo Niagara Intl Ap,                !- City
  NY,                                     !- State Province Region
  USA,                                    !- Country
  TMY3,                                   !- Data Source
  725280,                                 !- WMO Number
  42.93,                                  !- Latitude {deg}
  -78.73,                                 !- Longitude {deg}
  -5,                                     !- Time Zone {hr}
  215,                                    !- Elevation {m}
  /Users/nmoore/github/urbanopt-example-geojson-project/example_project/weather/USA_NY_Buffalo-Greater.Buffalo.Intl.AP.725280_TMY3.epw, !- Url
  6B50E0FF,                               !- Checksum
  ,                                       !- Start Date Actual Year
  Sunday;                                 !- Start Day of Week

OS:YearDescription,
  {f6ed370d-dd6f-402e-bdae-63bc504e0d64}, !- Handle
  2007,                                   !- Calendar Year
  ,                                       !- Day of Week for Start Day
  ;                                       !- Is Leap Year

OS:Site,
  {f8a30220-415e-49d5-b315-815805e5c451}, !- Handle
  Buffalo Niagara Intl Ap_NY,             !- Name
  42.93,                                  !- Latitude {deg}
  -78.73,                                 !- Longitude {deg}
  -5,                                     !- Time Zone {hr}
  215,                                    !- Elevation {m}
  Suburbs,                                !- Terrain
  Yes;                                    !- Keep Site Location Information

OS:RunPeriodControl:DaylightSavingTime,
  {490c4af0-02a8-49d5-9bd6-c7ad6179b502}, !- Handle
  Mar 12,                                 !- Start Date
  Nov 5;                                  !- End Date

OS:Site:GroundTemperature:Shallow,
  {b291e0f4-5f44-4f8d-9b14-c9f4a64bcabe}, !- Handle
  4.30207395723828,                       !- January Surface Ground Temperature {C}
  2.29327249652502,                       !- February Surface Ground Temperature {C}
  2.13240047156047,                       !- March Surface Ground Temperature {C}
  3.08567940719286,                       !- April Surface Ground Temperature {C}
  6.91256312497526,                       !- May Surface Ground Temperature {C}
  10.7216195949507,                       !- June Surface Ground Temperature {C}
  14.0238679822574,                       !- July Surface Ground Temperature {C}
  16.1157611184724,                       !- August Surface Ground Temperature {C}
  16.2934789303462,                       !- September Surface Ground Temperature {C}
  14.5920754632847,                       !- October Surface Ground Temperature {C}
  11.374036348653,                        !- November Surface Ground Temperature {C}
  7.68182621661674;                       !- December Surface Ground Temperature {C}

OS:ThermalZone,
  {e4210592-de92-4d93-8d88-40215c9c9219}, !- Handle
  conditioned space,                      !- Name
  1,                                      !- Multiplier
  ,                                       !- Ceiling Height {m}
  692.06373070848,                        !- Volume {m3}
  ,                                       !- Floor Area {m2}
  ,                                       !- Zone Inside Convection Algorithm
  ,                                       !- Zone Outside Convection Algorithm
  ,                                       !- Zone Conditioning Equipment List Name
  {5dcc699f-c12d-4695-824f-ef02a2b3a358}, !- Zone Air Inlet Port List
  {23ef1322-a69a-4958-b986-d5a6aeed1880}, !- Zone Air Exhaust Port List
  {3dcb979c-d6ca-4d8c-a1c2-cd9846aa86be}, !- Zone Air Node Name
  {1a63cd7a-f0eb-4b41-9c3d-8d32b7c9aa1b}, !- Zone Return Air Port List
  ,                                       !- Primary Daylighting Control Name
  ,                                       !- Fraction of Zone Controlled by Primary Daylighting Control
  ,                                       !- Secondary Daylighting Control Name
  ,                                       !- Fraction of Zone Controlled by Secondary Daylighting Control
  ,                                       !- Illuminance Map Name
  ,                                       !- Group Rendering Name
  {cd5720d4-d032-419c-bb6f-ade1da8de9ab}, !- Thermostat Name
  No;                                     !- Use Ideal Air Loads

OS:Node,
  {d3784e0e-0e3b-436c-b3d3-33f32b15a4ed}, !- Handle
  Node 1,                                 !- Name
  {3dcb979c-d6ca-4d8c-a1c2-cd9846aa86be}, !- Inlet Port
  ;                                       !- Outlet Port

OS:Connection,
  {3dcb979c-d6ca-4d8c-a1c2-cd9846aa86be}, !- Handle
  {e4210592-de92-4d93-8d88-40215c9c9219}, !- Source Object
  11,                                     !- Outlet Port
  {d3784e0e-0e3b-436c-b3d3-33f32b15a4ed}, !- Target Object
  2;                                      !- Inlet Port

OS:PortList,
  {5dcc699f-c12d-4695-824f-ef02a2b3a358}, !- Handle
  {e4210592-de92-4d93-8d88-40215c9c9219}, !- HVAC Component
  {3b7c2631-175d-4144-8629-13e88637896f}; !- Port 1

OS:PortList,
  {23ef1322-a69a-4958-b986-d5a6aeed1880}, !- Handle
  {e4210592-de92-4d93-8d88-40215c9c9219}; !- HVAC Component

OS:PortList,
  {1a63cd7a-f0eb-4b41-9c3d-8d32b7c9aa1b}, !- Handle
  {e4210592-de92-4d93-8d88-40215c9c9219}, !- HVAC Component
  {bf885a77-8ab6-48ce-9c11-1cbf094d6fa6}; !- Port 1

OS:Sizing:Zone,
  {316e59ff-6310-4cc8-ba12-382a873f2e8d}, !- Handle
  {e4210592-de92-4d93-8d88-40215c9c9219}, !- Zone or ZoneList Name
  SupplyAirTemperature,                   !- Zone Cooling Design Supply Air Temperature Input Method
  14,                                     !- Zone Cooling Design Supply Air Temperature {C}
  11.11,                                  !- Zone Cooling Design Supply Air Temperature Difference {deltaC}
  SupplyAirTemperature,                   !- Zone Heating Design Supply Air Temperature Input Method
  40,                                     !- Zone Heating Design Supply Air Temperature {C}
  11.11,                                  !- Zone Heating Design Supply Air Temperature Difference {deltaC}
  0.0085,                                 !- Zone Cooling Design Supply Air Humidity Ratio {kg-H2O/kg-air}
  0.008,                                  !- Zone Heating Design Supply Air Humidity Ratio {kg-H2O/kg-air}
  ,                                       !- Zone Heating Sizing Factor
  ,                                       !- Zone Cooling Sizing Factor
  DesignDay,                              !- Cooling Design Air Flow Method
  ,                                       !- Cooling Design Air Flow Rate {m3/s}
  ,                                       !- Cooling Minimum Air Flow per Zone Floor Area {m3/s-m2}
  ,                                       !- Cooling Minimum Air Flow {m3/s}
  ,                                       !- Cooling Minimum Air Flow Fraction
  DesignDay,                              !- Heating Design Air Flow Method
  ,                                       !- Heating Design Air Flow Rate {m3/s}
  ,                                       !- Heating Maximum Air Flow per Zone Floor Area {m3/s-m2}
  ,                                       !- Heating Maximum Air Flow {m3/s}
  ,                                       !- Heating Maximum Air Flow Fraction
  No,                                     !- Account for Dedicated Outdoor Air System
  NeutralSupplyAir,                       !- Dedicated Outdoor Air System Control Strategy
  autosize,                               !- Dedicated Outdoor Air Low Setpoint Temperature for Design {C}
  autosize,                               !- Dedicated Outdoor Air High Setpoint Temperature for Design {C}
  Sensible Load Only No Latent Load,      !- Zone Load Sizing Method
  HumidityRatioDifference,                !- Zone Latent Cooling Design Supply Air Humidity Ratio Input Method
  ,                                       !- Zone Dehumidification Design Supply Air Humidity Ratio {kgWater/kgDryAir}
  0.005,                                  !- Zone Cooling Design Supply Air Humidity Ratio Difference {kgWater/kgDryAir}
  HumidityRatioDifference,                !- Zone Latent Heating Design Supply Air Humidity Ratio Input Method
  ,                                       !- Zone Humidification Design Supply Air Humidity Ratio {kgWater/kgDryAir}
  0.005,                                  !- Zone Humidification Design Supply Air Humidity Ratio Difference {kgWater/kgDryAir}
  ,                                       !- Zone Humidistat Dehumidification Set Point Schedule Name
  ,                                       !- Zone Humidistat Humidification Set Point Schedule Name
  ,                                       !- Design Zone Air Distribution Effectiveness in Cooling Mode
  ,                                       !- Design Zone Air Distribution Effectiveness in Heating Mode
  ,                                       !- Design Zone Secondary Recirculation Fraction {dimensionless}
  ,                                       !- Design Minimum Zone Ventilation Efficiency {dimensionless}
  Coincident;                             !- Sizing Option

OS:ZoneHVAC:EquipmentList,
  {5edb1b02-62ac-4163-81f0-5ca5cee332fd}, !- Handle
  Zone HVAC Equipment List 1,             !- Name
  {e4210592-de92-4d93-8d88-40215c9c9219}, !- Thermal Zone
  ,                                       !- Load Distribution Scheme
  {d3e8421d-3166-46ba-86ee-04fccdbe3184}, !- Zone Equipment 1
  1,                                      !- Zone Equipment Cooling Sequence 1
  1,                                      !- Zone Equipment Heating or No-Load Sequence 1
  {e03b1802-fe03-4d81-86a3-5f37cedf9941}, !- Zone Equipment Sequential Cooling Fraction Schedule Name 1
  {ec8d1f3c-634f-47f7-a331-5de9b6208ffb}, !- Zone Equipment Sequential Heating Fraction Schedule Name 1
  {632c4028-3d57-49ce-8b18-85ad0b154150}, !- Zone Equipment 2
  2,                                      !- Zone Equipment Cooling Sequence 2
  2,                                      !- Zone Equipment Heating or No-Load Sequence 2
  {4e51b2da-ae05-455b-920c-613cf1a41814}, !- Zone Equipment Sequential Cooling Fraction Schedule Name 2
  {4c2e6ad7-06cb-4f0d-a62e-ce9f58f846c1}; !- Zone Equipment Sequential Heating Fraction Schedule Name 2

OS:AdditionalProperties,
  {ee8fac78-1c64-4940-993e-6730f47980b6}, !- Handle
  {e4210592-de92-4d93-8d88-40215c9c9219}, !- Object Name
  ObjectType,                             !- Feature Name 1
  String,                                 !- Feature Data Type 1
  conditioned space;                      !- Feature Value 1

OS:Space,
  {295f6747-51ba-4bbf-af95-741e7075cdfa}, !- Handle
  conditioned space 1,                    !- Name
  ,                                       !- Space Type Name
  ,                                       !- Default Construction Set Name
  ,                                       !- Default Schedule Set Name
  ,                                       !- Direction of Relative North {deg}
  ,                                       !- X Origin {m}
  ,                                       !- Y Origin {m}
  ,                                       !- Z Origin {m}
  ,                                       !- Building Story Name
  {e4210592-de92-4d93-8d88-40215c9c9219}, !- Thermal Zone Name
  ,                                       !- Part of Total Floor Area
  ,                                       !- Design Specification Outdoor Air Object Name
  ,                                       !- Building Unit Name
  692.06373070848;                        !- Volume {m3}

OS:Schedule:Ruleset,
  {06f395c5-493e-482a-8a9b-16c9eea19697}, !- Handle
  heating setpoint,                       !- Name
  {a3fef484-bad3-4b6c-8dc5-49c98322a964}, !- Schedule Type Limits Name
  {439a49f4-bdc0-4bed-9a1a-5e21b1b1504f}; !- Default Day Schedule Name

OS:Schedule:Day,
  {439a49f4-bdc0-4bed-9a1a-5e21b1b1504f}, !- Handle
  heating setpoint default day,           !- Name
  {a3fef484-bad3-4b6c-8dc5-49c98322a964}, !- Schedule Type Limits Name
  ,                                       !- Interpolate to Timestep
  24,                                     !- Hour 1
  0,                                      !- Minute 1
  0;                                      !- Value Until Time 1

OS:Schedule:Rule,
  {96e9ea57-f238-47b4-923d-eabc118a32b3}, !- Handle
  heating setpoint allday rule,           !- Name
  {06f395c5-493e-482a-8a9b-16c9eea19697}, !- Schedule Ruleset Name
  0,                                      !- Rule Order
  {36f03711-65ae-4bb4-8726-7c894fb47190}, !- Day Schedule Name
  Yes,                                    !- Apply Sunday
  Yes,                                    !- Apply Monday
  Yes,                                    !- Apply Tuesday
  Yes,                                    !- Apply Wednesday
  Yes,                                    !- Apply Thursday
  Yes,                                    !- Apply Friday
  Yes,                                    !- Apply Saturday
  DateRange,                              !- Date Specification Type
  1,                                      !- Start Month
  1,                                      !- Start Day
  12,                                     !- End Month
  31;                                     !- End Day

OS:Schedule:Day,
  {36f03711-65ae-4bb4-8726-7c894fb47190}, !- Handle
  heating setpoint day,                   !- Name
  {a3fef484-bad3-4b6c-8dc5-49c98322a964}, !- Schedule Type Limits Name
  ,                                       !- Interpolate to Timestep
  24,                                     !- Hour 1
  0,                                      !- Minute 1
  20;                                     !- Value Until Time 1

OS:Schedule:Ruleset,
  {15f594f5-338d-484e-83b9-427932826bb4}, !- Handle
  cooling setpoint,                       !- Name
  {a3fef484-bad3-4b6c-8dc5-49c98322a964}, !- Schedule Type Limits Name
  {eb0f6ed2-2655-4c92-a8fb-5b1465d112d7}; !- Default Day Schedule Name

OS:Schedule:Day,
  {eb0f6ed2-2655-4c92-a8fb-5b1465d112d7}, !- Handle
  cooling setpoint default day,           !- Name
  {a3fef484-bad3-4b6c-8dc5-49c98322a964}, !- Schedule Type Limits Name
  ,                                       !- Interpolate to Timestep
  24,                                     !- Hour 1
  0,                                      !- Minute 1
  0;                                      !- Value Until Time 1

OS:Schedule:Rule,
  {f7697907-da3a-43ff-a941-7348a9827e4f}, !- Handle
  cooling setpoint allday rule,           !- Name
  {15f594f5-338d-484e-83b9-427932826bb4}, !- Schedule Ruleset Name
  0,                                      !- Rule Order
  {09e15113-8fcc-4909-8c5e-5bece61cd20b}, !- Day Schedule Name
  Yes,                                    !- Apply Sunday
  Yes,                                    !- Apply Monday
  Yes,                                    !- Apply Tuesday
  Yes,                                    !- Apply Wednesday
  Yes,                                    !- Apply Thursday
  Yes,                                    !- Apply Friday
  Yes,                                    !- Apply Saturday
  DateRange,                              !- Date Specification Type
  1,                                      !- Start Month
  1,                                      !- Start Day
  12,                                     !- End Month
  31;                                     !- End Day

OS:Schedule:Day,
  {09e15113-8fcc-4909-8c5e-5bece61cd20b}, !- Handle
  cooling setpoint day,                   !- Name
  {a3fef484-bad3-4b6c-8dc5-49c98322a964}, !- Schedule Type Limits Name
  ,                                       !- Interpolate to Timestep
  24,                                     !- Hour 1
  0,                                      !- Minute 1
  25.5555555555556;                       !- Value Until Time 1

OS:ThermostatSetpoint:DualSetpoint,
  {cd5720d4-d032-419c-bb6f-ade1da8de9ab}, !- Handle
  conditioned space temperature setpoint, !- Name
  {06f395c5-493e-482a-8a9b-16c9eea19697}, !- Heating Setpoint Temperature Schedule Name
  {15f594f5-338d-484e-83b9-427932826bb4}, !- Cooling Setpoint Temperature Schedule Name
  0;                                      !- Temperature Difference Between Cutout And Setpoint {deltaC}

OS:ScheduleTypeLimits,
  {a3fef484-bad3-4b6c-8dc5-49c98322a964}, !- Handle
  Temperature,                            !- Name
  ,                                       !- Lower Limit Value
  ,                                       !- Upper Limit Value
  Continuous,                             !- Numeric Type
  Temperature;                            !- Unit Type

OS:Surface,
  {2fd1819e-2738-4c4b-b098-7097bc1b6237}, !- Handle
  Roof1,                                  !- Name
  RoofCeiling,                            !- Surface Type
  {7fa0fddb-5b5f-481e-869a-b2724648c440}, !- Construction Name
  {055caa5e-1f53-4427-aaa1-27c2a1424dcb}, !- Space Name
  Outdoors,                               !- Outside Boundary Condition
  ,                                       !- Outside Boundary Condition Object
  SunExposed,                             !- Sun Exposure
  WindExposed,                            !- Wind Exposure
  ,                                       !- View Factor to Ground
  ,                                       !- Number of Vertices
  -26.9347048849634, 58.0557891618865, 2.4384, !- X,Y,Z Vertex 1 {m}
  -26.9347048849634, 46.7895631136661, 8.0715130241102, !- X,Y,Z Vertex 2 {m}
  -14.3386812381136, 46.7895631136661, 8.0715130241102, !- X,Y,Z Vertex 3 {m}
  -14.3386812381136, 58.0557891618865, 2.4384; !- X,Y,Z Vertex 4 {m}

OS:AdditionalProperties,
  {a2d26476-3651-4573-a679-300f04e82e34}, !- Handle
  {2fd1819e-2738-4c4b-b098-7097bc1b6237}, !- Object Name
  Length,                                 !- Feature Name 1
  Double,                                 !- Feature Data Type 1
  41.325536899113608,                     !- Feature Value 1
  Width,                                  !- Feature Name 2
  Double,                                 !- Feature Data Type 2
  41.325536899113601,                     !- Feature Value 2
  Azimuth,                                !- Feature Name 3
  Integer,                                !- Feature Data Type 3
  0,                                      !- Feature Value 3
  Tilt,                                   !- Feature Name 4
  Double,                                 !- Feature Data Type 4
  0.5,                                    !- Feature Value 4
  SurfaceType,                            !- Feature Name 5
  String,                                 !- Feature Data Type 5
  Roof;                                   !- Feature Value 5

OS:ThermalZone,
  {d7a287c2-ee99-43ae-969e-0b14ca5df2fd}, !- Handle
  attic - vented,                         !- Name
  1,                                      !- Multiplier
  ,                                       !- Ceiling Height {m}
  356.390921899745,                       !- Volume {m3}
  ,                                       !- Floor Area {m2}
  ,                                       !- Zone Inside Convection Algorithm
  ,                                       !- Zone Outside Convection Algorithm
  ,                                       !- Zone Conditioning Equipment List Name
  {11c4c94e-bd01-4ff7-b0ed-875199cbc24b}, !- Zone Air Inlet Port List
  {70c4e9e8-2449-4610-ab62-d401058ec862}, !- Zone Air Exhaust Port List
  {a11a2cce-5f26-4cb2-80b1-3a1ca59c1421}, !- Zone Air Node Name
  {d637625d-9bc1-407d-954e-4f941bfe7a3f}, !- Zone Return Air Port List
  ,                                       !- Primary Daylighting Control Name
  ,                                       !- Fraction of Zone Controlled by Primary Daylighting Control
  ,                                       !- Secondary Daylighting Control Name
  ,                                       !- Fraction of Zone Controlled by Secondary Daylighting Control
  ,                                       !- Illuminance Map Name
  ,                                       !- Group Rendering Name
  ,                                       !- Thermostat Name
  No;                                     !- Use Ideal Air Loads

OS:Node,
  {5f480c13-3482-410a-81ac-9a08147c8ac4}, !- Handle
  Node 2,                                 !- Name
  {a11a2cce-5f26-4cb2-80b1-3a1ca59c1421}, !- Inlet Port
  ;                                       !- Outlet Port

OS:Connection,
  {a11a2cce-5f26-4cb2-80b1-3a1ca59c1421}, !- Handle
  {d7a287c2-ee99-43ae-969e-0b14ca5df2fd}, !- Source Object
  11,                                     !- Outlet Port
  {5f480c13-3482-410a-81ac-9a08147c8ac4}, !- Target Object
  2;                                      !- Inlet Port

OS:PortList,
  {11c4c94e-bd01-4ff7-b0ed-875199cbc24b}, !- Handle
  {d7a287c2-ee99-43ae-969e-0b14ca5df2fd}; !- HVAC Component

OS:PortList,
  {70c4e9e8-2449-4610-ab62-d401058ec862}, !- Handle
  {d7a287c2-ee99-43ae-969e-0b14ca5df2fd}; !- HVAC Component

OS:PortList,
  {d637625d-9bc1-407d-954e-4f941bfe7a3f}, !- Handle
  {d7a287c2-ee99-43ae-969e-0b14ca5df2fd}; !- HVAC Component

OS:Sizing:Zone,
  {3601204d-0e58-42a5-ba79-0284baf88cc8}, !- Handle
  {d7a287c2-ee99-43ae-969e-0b14ca5df2fd}, !- Zone or ZoneList Name
  SupplyAirTemperature,                   !- Zone Cooling Design Supply Air Temperature Input Method
  14,                                     !- Zone Cooling Design Supply Air Temperature {C}
  11.11,                                  !- Zone Cooling Design Supply Air Temperature Difference {deltaC}
  SupplyAirTemperature,                   !- Zone Heating Design Supply Air Temperature Input Method
  40,                                     !- Zone Heating Design Supply Air Temperature {C}
  11.11,                                  !- Zone Heating Design Supply Air Temperature Difference {deltaC}
  0.0085,                                 !- Zone Cooling Design Supply Air Humidity Ratio {kg-H2O/kg-air}
  0.008,                                  !- Zone Heating Design Supply Air Humidity Ratio {kg-H2O/kg-air}
  ,                                       !- Zone Heating Sizing Factor
  ,                                       !- Zone Cooling Sizing Factor
  DesignDay,                              !- Cooling Design Air Flow Method
  ,                                       !- Cooling Design Air Flow Rate {m3/s}
  ,                                       !- Cooling Minimum Air Flow per Zone Floor Area {m3/s-m2}
  ,                                       !- Cooling Minimum Air Flow {m3/s}
  ,                                       !- Cooling Minimum Air Flow Fraction
  DesignDay,                              !- Heating Design Air Flow Method
  ,                                       !- Heating Design Air Flow Rate {m3/s}
  ,                                       !- Heating Maximum Air Flow per Zone Floor Area {m3/s-m2}
  ,                                       !- Heating Maximum Air Flow {m3/s}
  ,                                       !- Heating Maximum Air Flow Fraction
  No,                                     !- Account for Dedicated Outdoor Air System
  NeutralSupplyAir,                       !- Dedicated Outdoor Air System Control Strategy
  autosize,                               !- Dedicated Outdoor Air Low Setpoint Temperature for Design {C}
  autosize,                               !- Dedicated Outdoor Air High Setpoint Temperature for Design {C}
  Sensible Load Only No Latent Load,      !- Zone Load Sizing Method
  HumidityRatioDifference,                !- Zone Latent Cooling Design Supply Air Humidity Ratio Input Method
  ,                                       !- Zone Dehumidification Design Supply Air Humidity Ratio {kgWater/kgDryAir}
  0.005,                                  !- Zone Cooling Design Supply Air Humidity Ratio Difference {kgWater/kgDryAir}
  HumidityRatioDifference,                !- Zone Latent Heating Design Supply Air Humidity Ratio Input Method
  ,                                       !- Zone Humidification Design Supply Air Humidity Ratio {kgWater/kgDryAir}
  0.005,                                  !- Zone Humidification Design Supply Air Humidity Ratio Difference {kgWater/kgDryAir}
  ,                                       !- Zone Humidistat Dehumidification Set Point Schedule Name
  ,                                       !- Zone Humidistat Humidification Set Point Schedule Name
  ,                                       !- Design Zone Air Distribution Effectiveness in Cooling Mode
  ,                                       !- Design Zone Air Distribution Effectiveness in Heating Mode
  ,                                       !- Design Zone Secondary Recirculation Fraction {dimensionless}
  ,                                       !- Design Minimum Zone Ventilation Efficiency {dimensionless}
  Coincident;                             !- Sizing Option

OS:ZoneHVAC:EquipmentList,
  {0b92893e-5ae0-4bc7-a2e3-55b5c75dd920}, !- Handle
  Zone HVAC Equipment List 2,             !- Name
  {d7a287c2-ee99-43ae-969e-0b14ca5df2fd}; !- Thermal Zone

OS:AdditionalProperties,
  {b840d61a-cb7f-467f-b30b-4fb0a2b6a759}, !- Handle
  {d7a287c2-ee99-43ae-969e-0b14ca5df2fd}, !- Object Name
  ObjectType,                             !- Feature Name 1
  String,                                 !- Feature Data Type 1
  attic - vented;                         !- Feature Value 1

OS:Space,
  {055caa5e-1f53-4427-aaa1-27c2a1424dcb}, !- Handle
  attic - vented 1,                       !- Name
  ,                                       !- Space Type Name
  ,                                       !- Default Construction Set Name
  ,                                       !- Default Schedule Set Name
  ,                                       !- Direction of Relative North {deg}
  ,                                       !- X Origin {m}
  ,                                       !- Y Origin {m}
  ,                                       !- Z Origin {m}
  ,                                       !- Building Story Name
  {d7a287c2-ee99-43ae-969e-0b14ca5df2fd}, !- Thermal Zone Name
  ,                                       !- Part of Total Floor Area
  ,                                       !- Design Specification Outdoor Air Object Name
  ,                                       !- Building Unit Name
  356.390921899745;                       !- Volume {m3}

OS:Material,
  {f69fbbe4-23e3-4190-b1ac-7aac52320e75}, !- Handle
  asphalt or fiberglass shingles,         !- Name