
OS:Version,
  {2da364ea-fe9a-477d-9b7f-b18e177a5d65}, !- Handle
  3.10.0;                                 !- Version Identifier

OS:SimulationControl,
  {15d0071e-8d75-47ce-8df8-f5a59d6ded06}, !- Handle
  ,                                       !- Do Zone Sizing Calculation
  ,                                       !- Do System Sizing Calculation
  ,                                       !- Do Plant Sizing Calculation
  No;                                     !- Run Simulation for Sizing Periods

OS:Timestep,
  {abe0782d-92de-4937-8cfc-3cc97c00df32}, !- Handle
  1;                                      !- Number of Timesteps per Hour

OS:ShadowCalculation,
  {63d5d6d6-bca5-4385-a15b-b5969952b4fa}, !- Handle
  PolygonClipping,                        !- Shading Calculation Method
  ,                                       !- Shading Calculation Update Frequency Method
  20,                                     !- Shading Calculation Update Frequency
  200,                                    !- Maximum Figures in Shadow Overlap Calculations
  ,                                       !- Polygon Clipping Algorithm
  512,                                    !- Pixel Counting Resolution
  ,                                       !- Sky Diffuse Modeling Algorithm
  No,                                     !- Output External Shading Calculation Results
  No,                                     !- Disable Self-Shading Within Shading Zone Groups
  No;                                     !- Disable Self-Shading From Shading Zone Groups to Other Zones

OS:SurfaceConvectionAlgorithm:Outside,
  {02a52905-d147-4ace-a25e-a7f55f02ffcf}, !- Handle
  DOE-2;                                  !- Algorithm

OS:SurfaceConvectionAlgorithm:Inside,
  {498d568b-21d2-498d-bf09-211251060103}, !- Handle
  TARP;                                   !- Algorithm

OS:ZoneCapacitanceMultiplier:ResearchSpecial,
  {ebfaecd6-388d-4812-b245-468bbae44ad6}, !- Handle
  7,                                      !- Temperature Capacity Multiplier
  15,                                     !- Humidity Capacity Multiplier
  ;                                       !- Carbon Dioxide Capacity Multiplier

OS:ConvergenceLimits,
  {55d49d98-0c4f-4485-a7a9-cc61173fdb2a}, !- Handle
  0;                                      !- Minimum System Timestep {minutes}

OS:RunPeriod,
  {6cdfa7f9-161c-469f-b7fe-73b46087f7bd}, !- Handle
  Run Period 1,                           !- Name
  1,                                      !- Begin Month
  1,                                      !- Begin Day of Month
  12,                                     !- End Month
  31,                                     !- End Day of Month
  ,                                       !- Use Weather File Holidays and Special Days
  ,                                       !- Use Weather File Daylight Saving Period
  ,                                       !- Apply Weekend Holiday Rule
  ,                                       !- Use Weather File Rain Indicators
  ,                                       !- Use Weather File Snow Indicators
  ;                                       !- Number of Times Runperiod to be Repeated

OS:PerformancePrecisionTradeoffs,
  {b9a94dad-2ac4-4693-bed6-dcb989538ce2}, !- Handle
  ,                                       !- Use Coil Direct Solutions
  CarrollMRT;                             !- Zone Radiant Exchange Algorithm

OS:WeatherFile,
  {e456272c-ec70-430d-963c-0894f8f72305}, !- Handle
  Buffalo Niagara Intl Ap,                !- City
  NY,                                     !- State Province Region
  USA,                                    !- Country
  TMY3,                                   !- Data Source
  725280,                                 !- WMO Number
  42.93,                                  !- Latitude {deg}
  -78.73,                                 !- Longitude {deg}
  -5,                                     !- Time Zone {hr}
  215,                                    !- Elevation {m}
  /Users/nmoore/github/urbanopt-example-geojson-project/example_project/weather/USA_NY_Buffalo-Greater.Buffalo.Intl.AP.725280_TMY3.epw, !- Url
  6B50E0FF,                               !- Checksum
  ,                                       !- Start Date Actual Year
  Sunday;                                 !- Start Day of Week

OS:YearDescription,
  {1e3476c0-addc-4dc2-a8b0-58b56e73e715}, !- Handle
  2007,                                   !- Calendar Year
  ,                                       !- Day of Week for Start Day
  ;                                       !- Is Leap Year

OS:Site,
  {42d20be1-2284-4937-bc26-170089cd7672}, !- Handle
  Buffalo Niagara Intl Ap_NY,             !- Name
  42.93,                                  !- Latitude {deg}
  -78.73,                                 !- Longitude {deg}
  -5,                                     !- Time Zone {hr}
  215,                                    !- Elevation {m}
  Suburbs,                                !- Terrain
  Yes;                                    !- Keep Site Location Information

OS:RunPeriodControl:DaylightSavingTime,
  {b79f7505-107d-4c10-abf2-bfad950af730}, !- Handle
  Mar 12,                                 !- Start Date
  Nov 5;                                  !- End Date

OS:Site:GroundTemperature:Shallow,
  {d67ada1e-2050-4a7c-b120-ee5ad5694c2a}, !- Handle
  4.30207395723828,                       !- January Surface Ground Temperature {C}
  2.29327249652502,                       !- February Surface Ground Temperature {C}
  2.13240047156047,                       !- March Surface Ground Temperature {C}
  3.08567940719286,                       !- April Surface Ground Temperature {C}
  6.91256312497526,                       !- May Surface Ground Temperature {C}
  10.7216195949507,                       !- June Surface Ground Temperature {C}
  14.0238679822574,                       !- July Surface Ground Temperature {C}
  16.1157611184724,                       !- August Surface Ground Temperature {C}
  16.2934789303462,                       !- September Surface Ground Temperature {C}
  14.5920754632847,                       !- October Surface Ground Temperature {C}
  11.374036348653,                        !- November Surface Ground Temperature {C}
  7.68182621661674;                       !- December Surface Ground Temperature {C}

OS:ThermalZone,
  {fb511403-6e70-4c66-a35a-e1ebb8efa06a}, !- Handle
  conditioned space,                      !- Name
  1,                                      !- Multiplier
  ,                                       !- Ceiling Height {m}
  475.79381486208,                        !- Volume {m3}
  ,                                       !- Floor Area {m2}
  ,                                       !- Zone Inside Convection Algorithm
  ,                                       !- Zone Outside Convection Algorithm
  ,                                       !- Zone Conditioning Equipment List Name
  {e225f639-44ec-40e2-8f5c-3214b47c1a58}, !- Zone Air Inlet Port List
  {753d6b8c-1e73-4b46-a77e-548832aaa4f1}, !- Zone Air Exhaust Port List
  {0307dd84-b525-4f66-922e-027548d488da}, !- Zone Air Node Name
  {3f67ee07-414c-44aa-ab5d-c8661bd27532}, !- Zone Return Air Port List
  ,                                       !- Primary Daylighting Control Name
  ,                                       !- Fraction of Zone Controlled by Primary Daylighting Control
  ,                                       !- Secondary Daylighting Control Name
  ,                                       !- Fraction of Zone Controlled by Secondary Daylighting Control
  ,                                       !- Illuminance Map Name
  ,                                       !- Group Rendering Name
  {522127b1-797a-4f28-a96c-754babc67fc1}, !- Thermostat Name
  No;                                     !- Use Ideal Air Loads

OS:Node,
  {bec95107-461a-42c5-ad6b-06e62182cdc5}, !- Handle
  Node 1,                                 !- Name
  {0307dd84-b525-4f66-922e-027548d488da}, !- Inlet Port
  ;                                       !- Outlet Port

OS:Connection,
  {0307dd84-b525-4f66-922e-027548d488da}, !- Handle
  {fb511403-6e70-4c66-a35a-e1ebb8efa06a}, !- Source Object
  11,                                     !- Outlet Port
  {bec95107-461a-42c5-ad6b-06e62182cdc5}, !- Target Object
  2;                                      !- Inlet Port

OS:PortList,
  {e225f639-44ec-40e2-8f5c-3214b47c1a58}, !- Handle
  {fb511403-6e70-4c66-a35a-e1ebb8efa06a}, !- HVAC Component
  {b0ae223a-8259-4223-b661-1e3051747050}; !- Port 1

OS:PortList,
  {753d6b8c-1e73-4b46-a77e-548832aaa4f1}, !- Handle
  {fb511403-6e70-4c66-a35a-e1ebb8efa06a}; !- HVAC Component

OS:PortList,
  {3f67ee07-414c-44aa-ab5d-c8661bd27532}, !- Handle
  {fb511403-6e70-4c66-a35a-e1ebb8efa06a}, !- HVAC Component
  {a379781e-69f8-4f3a-9f6f-02fa5ea9a15f}; !- Port 1

OS:Sizing:Zone,
  {f07e3c11-3e8c-4137-adac-5cba8c713333}, !- Handle
  {fb511403-6e70-4c66-a35a-e1ebb8efa06a}, !- Zone or ZoneList Name
  SupplyAirTemperature,                   !- Zone Cooling Design Supply Air Temperature Input Method
  14,                                     !- Zone Cooling Design Supply Air Temperature {C}
  11.11,                                  !- Zone Cooling Design Supply Air Temperature Difference {deltaC}
  SupplyAirTemperature,                   !- Zone Heating Design Supply Air Temperature Input Method
  40,                                     !- Zone Heating Design Supply Air Temperature {C}
  11.11,                                  !- Zone Heating Design Supply Air Temperature Difference {deltaC}
  0.0085,                                 !- Zone Cooling Design Supply Air Humidity Ratio {kg-H2O/kg-air}
  0.008,                                  !- Zone Heating Design Supply Air Humidity Ratio {kg-H2O/kg-air}
  ,                                       !- Zone Heating Sizing Factor
  ,                                       !- Zone Cooling Sizing Factor
  DesignDay,                              !- Cooling Design Air Flow Method
  ,                                       !- Cooling Design Air Flow Rate {m3/s}
  ,                                       !- Cooling Minimum Air Flow per Zone Floor Area {m3/s-m2}
  ,                                       !- Cooling Minimum Air Flow {m3/s}
  ,                                       !- Cooling Minimum Air Flow Fraction
  DesignDay,                              !- Heating Design Air Flow Method
  ,                                       !- Heating Design Air Flow Rate {m3/s}
  ,                                       !- Heating Maximum Air Flow per Zone Floor Area {m3/s-m2}
  ,                                       !- Heating Maximum Air Flow {m3/s}
  ,                                       !- Heating Maximum Air Flow Fraction
  No,                                     !- Account for Dedicated Outdoor Air System
  NeutralSupplyAir,                       !- Dedicated Outdoor Air System Control Strategy
  autosize,                               !- Dedicated Outdoor Air Low Setpoint Temperature for Design {C}
  autosize,                               !- Dedicated Outdoor Air High Setpoint Temperature for Design {C}
  Sensible Load Only No Latent Load,      !- Zone Load Sizing Method
  HumidityRatioDifference,                !- Zone Latent Cooling Design Supply Air Humidity Ratio Input Method
  ,                                       !- Zone Dehumidification Design Supply Air Humidity Ratio {kgWater/kgDryAir}
  0.005,                                  !- Zone Cooling Design Supply Air Humidity Ratio Difference {kgWater/kgDryAir}
  HumidityRatioDifference,                !- Zone Latent Heating Design Supply Air Humidity Ratio Input Method
  ,                                       !- Zone Humidification Design Supply Air Humidity Ratio {kgWater/kgDryAir}
  0.005,                                  !- Zone Humidification Design Supply Air Humidity Ratio Difference {kgWater/kgDryAir}
  ,                                       !- Zone Humidistat Dehumidification Set Point Schedule Name
  ,                                       !- Zone Humidistat Humidification Set Point Schedule Name
  ,                                       !- Design Zone Air Distribution Effectiveness in Cooling Mode
  ,                                       !- Design Zone Air Distribution Effectiveness in Heating Mode
  ,                                       !- Design Zone Secondary Recirculation Fraction {dimensionless}
  ,                                       !- Design Minimum Zone Ventilation Efficiency {dimensionless}
  Coincident;                             !- Sizing Option

OS:ZoneHVAC:EquipmentList,
  {e8cd495f-cd19-4628-8cdd-356a595eb9c0}, !- Handle
  Zone HVAC Equipment List 1,             !- Name
  {fb511403-6e70-4c66-a35a-e1ebb8efa06a}, !- Thermal Zone
  ,                                       !- Load Distribution Scheme
  {10307262-d227-4cdb-a4d9-ab2926ad9ebf}, !- Zone Equipment 1
  1,                                      !- Zone Equipment Cooling Sequence 1
  1,                                      !- Zone Equipment Heating or No-Load Sequence 1
  {69e7c944-8049-4378-be10-339e0391a87c}, !- Zone Equipment Sequential Cooling Fraction Schedule Name 1
  {9f48210c-5168-4e83-b6d3-558a64ab0577}; !- Zone Equipment Sequential Heating Fraction Schedule Name 1

OS:AdditionalProperties,
  {02e111f2-60fe-4b2a-9cfa-4cfc20bdf58a}, !- Handle
  {fb511403-6e70-4c66-a35a-e1ebb8efa06a}, !- Object Name
  ObjectType,                             !- Feature Name 1
  String,                                 !- Feature Data Type 1
  conditioned space;                      !- Feature Value 1

OS:Space,
  {96fc0f84-fce5-461c-926e-1cd09a7515ab}, !- Handle
  conditioned space 1,                    !- Name
  ,                                       !- Space Type Name
  ,                                       !- Default Construction Set Name
  ,                                       !- Default Schedule Set Name
  ,                                       !- Direction of Relative North {deg}
  ,                                       !- X Origin {m}
  ,                                       !- Y Origin {m}
  ,                                       !- Z Origin {m}
  ,                                       !- Building Story Name
  {fb511403-6e70-4c66-a35a-e1ebb8efa06a}, !- Thermal Zone Name
  ,                                       !- Part of Total Floor Area
  ,                                       !- Design Specification Outdoor Air Object Name
  ,                                       !- Building Unit Name
  475.79381486208;                        !- Volume {m3}

OS:Schedule:Ruleset,
  {fc0e2e0e-a73b-4d63-8935-18fa46a97661}, !- Handle
  heating setpoint,                       !- Name
  {052d1cfa-f3fe-4f3d-99b6-c1a5bb21a31e}, !- Schedule Type Limits Name
  {9c9c91d5-be64-49c4-93d0-49db8d035d9a}; !- Default Day Schedule Name

OS:Schedule:Day,
  {9c9c91d5-be64-49c4-93d0-49db8d035d9a}, !- Handle
  heating setpoint default day,           !- Name
  {052d1cfa-f3fe-4f3d-99b6-c1a5bb21a31e}, !- Schedule Type Limits Name
  ,                                       !- Interpolate to Timestep
  24,                                     !- Hour 1
  0,                                      !- Minute 1
  0;                                      !- Value Until Time 1

OS:Schedule:Rule,
  {41118a7b-fd47-42dd-b889-bdd87cd89c1b}, !- Handle
  heating setpoint allday rule,           !- Name
  {fc0e2e0e-a73b-4d63-8935-18fa46a97661}, !- Schedule Ruleset Name
  0,                                      !- Rule Order
  {7829d606-7670-4dae-ab27-1f9b96968b83}, !- Day Schedule Name
  Yes,                                    !- Apply Sunday
  Yes,                                    !- Apply Monday
  Yes,                                    !- Apply Tuesday
  Yes,                                    !- Apply Wednesday
  Yes,                                    !- Apply Thursday
  Yes,                                    !- Apply Friday
  Yes,                                    !- Apply Saturday
  DateRange,                              !- Date Specification Type
  1,                                      !- Start Month
  1,                                      !- Start Day
  12,                                     !- End Month
  31;                                     !- End Day

OS:Schedule:Day,
  {7829d606-7670-4dae-ab27-1f9b96968b83}, !- Handle
  heating setpoint day,                   !- Name
  {052d1cfa-f3fe-4f3d-99b6-c1a5bb21a31e}, !- Schedule Type Limits Name
  ,                                       !- Interpolate to Timestep
  24,                                     !- Hour 1
  0,                                      !- Minute 1
  20;                                     !- Value Until Time 1

OS:Schedule:Ruleset,
  {a4216175-6a5d-4afd-b5e0-756287a04fdb}, !- Handle
  cooling setpoint,                       !- Name
  {052d1cfa-f3fe-4f3d-99b6-c1a5bb21a31e}, !- Schedule Type Limits Name
  {860091ec-2d5c-446b-8576-c4764a424cd0}; !- Default Day Schedule Name

OS:Schedule:Day,
  {860091ec-2d5c-446b-8576-c4764a424cd0}, !- Handle
  cooling setpoint default day,           !- Name
  {052d1cfa-f3fe-4f3d-99b6-c1a5bb21a31e}, !- Schedule Type Limits Name
  ,                                       !- Interpolate to Timestep
  24,                                     !- Hour 1
  0,                                      !- Minute 1
  0;                                      !- Value Until Time 1

OS:Schedule:Rule,
  {9a6a6373-f8c0-4e52-a059-6853caa8b0b0}, !- Handle
  cooling setpoint allday rule,           !- Name
  {a4216175-6a5d-4afd-b5e0-756287a04fdb}, !- Schedule Ruleset Name
  0,                                      !- Rule Order
  {890140ac-0db4-430a-86a3-84d5071a2801}, !- Day Schedule Name
  Yes,                                    !- Apply Sunday
  Yes,                                    !- Apply Monday
  Yes,                                    !- Apply Tuesday
  Yes,                                    !- Apply Wednesday
  Yes,                                    !- Apply Thursday
  Yes,                                    !- Apply Friday
  Yes,                                    !- Apply Saturday
  DateRange,                              !- Date Specification Type
  1,                                      !- Start Month
  1,                                      !- Start Day
  12,                                     !- End Month
  31;                                     !- End Day

OS:Schedule:Day,
  {890140ac-0db4-430a-86a3-84d5071a2801}, !- Handle
  cooling setpoint day,                   !- Name
  {052d1cfa-f3fe-4f3d-99b6-c1a5bb21a31e}, !- Schedule Type Limits Name
  ,                                       !- Interpolate to Timestep
  24,                                     !- Hour 1
  0,                                      !- Minute 1
  25.5555555555556;                       !- Value Until Time 1

OS:ThermostatSetpoint:DualSetpoint,
  {522127b1-797a-4f28-a96c-754babc67fc1}, !- Handle
  conditioned space temperature setpoint, !- Name
  {fc0e2e0e-a73b-4d63-8935-18fa46a97661}, !- Heating Setpoint Temperature Schedule Name
  {a4216175-6a5d-4afd-b5e0-756287a04fdb}, !- Cooling Setpoint Temperature Schedule Name
  0;                                      !- Temperature Difference Between Cutout And Setpoint {deltaC}

OS:ScheduleTypeLimits,
  {052d1cfa-f3fe-4f3d-99b6-c1a5bb21a31e}, !- Handle
  Temperature,                            !- Name
  ,                                       !- Lower Limit Value
  ,                                       !- Upper Limit Value
  Continuous,                             !- Numeric Type
  Temperature;                            !- Unit Type

OS:Surface,
  {9a989278-5873-4e2a-b7d4-eaa7eaacfd9c}, !- Handle
  Roof1,                                  !- Name
  RoofCeiling,                            !- Surface Type
  {3467b59a-c9a0-4a07-ba77-279d35049376}, !- Construction Name
  {592f3a07-7ec4-4fbd-b0f0-d6c9a6637c3e}, !- Space Name
  Outdoors,                               !- Outside Boundary Condition
  ,                                       !- Outside Boundary Condition Object
  SunExposed,                             !- Sun Exposure
  WindExposed,                            !- Wind Exposure
  ,                                       !- View Factor to Ground
  ,                                       !- Number of Vertices
  -25.0448166683368, 35.3267874683368, 2.4384, !- X,Y,Z Vertex 1 {m}
  -25.0448166683368, 27.3603626312596, 6.42161241853859, !- X,Y,Z Vertex 2 {m}
  -16.1380829316632, 27.3603626312596, 6.42161241853859, !- X,Y,Z Vertex 3 {m}
  -16.1380829316632, 35.3267874683368, 2.4384; !- X,Y,Z Vertex 4 {m}

OS:AdditionalProperties,
  {c13150e3-5ec0-40dc-80ef-5bf1a708590e}, !- Handle
  {9a989278-5873-4e2a-b7d4-eaa7eaacfd9c}, !- Object Name
  Length,                                 !- Feature Name 1
  Double,                                 !- Feature Data Type 1
  29.221567377538118,                     !- Feature Value 1
  Width,                                  !- Feature Name 2
  Double,                                 !- Feature Data Type 2
  29.221567377538118,                     !- Feature Value 2
  Azimuth,                                !- Feature Name 3
  Integer,                                !- Feature Data Type 3
  0,                                      !- Feature Value 3
  Tilt,                                   !- Feature Name 4
  Double,                                 !- Feature Data Type 4
  0.5,                                    !- Feature Value 4
  SurfaceType,                            !- Feature Name 5
  String,                                 !- Feature Data Type 5
  Roof;                                   !- Feature Value 5

OS:ThermalZone,
  {8b34f0f5-c413-4bd4-b744-78949501e252}, !- Handle
  attic - vented,                         !- Name
  1,                                      !- Multiplier
  ,                                       !- Ceiling Height {m}
  126.003218814318,                       !- Volume {m3}
  ,                                       !- Floor Area {m2}
  ,                                       !- Zone Inside Convection Algorithm
  ,                                       !- Zone Outside Convection Algorithm
  ,                                       !- Zone Conditioning Equipment List Name
  {162426eb-f868-4d19-ab62-b1d7be71fbbb}, !- Zone Air Inlet Port List
  {4eb5fb3a-86ab-477c-8d26-a90c1de8d008}, !- Zone Air Exhaust Port List
  {00d65b73-cae8-45d2-921d-d05fc8af08aa}, !- Zone Air Node Name
  {c246fec4-11cd-4c16-bfb6-e35d275e93ff}, !- Zone Return Air Port List
  ,                                       !- Primary Daylighting Control Name
  ,                                       !- Fraction of Zone Controlled by Primary Daylighting Control
  ,                                       !- Secondary Daylighting Control Name
  ,                                       !- Fraction of Zone Controlled by Secondary Daylighting Control
  ,                                       !- Illuminance Map Name
  ,                                       !- Group Rendering Name
  ,                                       !- Thermostat Name
  No;                                     !- Use Ideal Air Loads

OS:Node,
  {cc57706b-ecdf-4848-8024-a174221a20b6}, !- Handle
  Node 2,                                 !- Name
  {00d65b73-cae8-45d2-921d-d05fc8af08aa}, !- Inlet Port
  ;                                       !- Outlet Port

OS:Connection,
  {00d65b73-cae8-45d2-921d-d05fc8af08aa}, !- Handle
  {8b34f0f5-c413-4bd4-b744-78949501e252}, !- Source Object
  11,                                     !- Outlet Port
  {cc57706b-ecdf-4848-8024-a174221a20b6}, !- Target Object
  2;                                      !- Inlet Port

OS:PortList,
  {162426eb-f868-4d19-ab62-b1d7be71fbbb}, !- Handle
  {8b34f0f5-c413-4bd4-b744-78949501e252}; !- HVAC Component

OS:PortList,
  {4eb5fb3a-86ab-477c-8d26-a90c1de8d008}, !- Handle
  {8b34f0f5-c413-4bd4-b744-78949501e252}; !- HVAC Component

OS:PortList,
  {c246fec4-11cd-4c16-bfb6-e35d275e93ff}, !- Handle
  {8b34f0f5-c413-4bd4-b744-78949501e252}; !- HVAC Component

OS:Sizing:Zone,
  {77568168-edbf-4ba7-b1bd-e70897bd955b}, !- Handle
  {8b34f0f5-c413-4bd4-b744-78949501e252}, !- Zone or ZoneList Name
  SupplyAirTemperature,                   !- Zone Cooling Design Supply Air Temperature Input Method
  14,                                     !- Zone Cooling Design Supply Air Temperature {C}
  11.11,                                  !- Zone Cooling Design Supply Air Temperature Difference {deltaC}
  SupplyAirTemperature,                   !- Zone Heating Design Supply Air Temperature Input Method
  40,                                     !- Zone Heating Design Supply Air Temperature {C}
  11.11,                                  !- Zone Heating Design Supply Air Temperature Difference {deltaC}
  0.0085,                                 !- Zone Cooling Design Supply Air Humidity Ratio {kg-H2O/kg-air}
  0.008,                                  !- Zone Heating Design Supply Air Humidity Ratio {kg-H2O/kg-air}
  ,                                       !- Zone Heating Sizing Factor
  ,                                       !- Zone Cooling Sizing Factor
  DesignDay,                              !- Cooling Design Air Flow Method
  ,                                       !- Cooling Design Air Flow Rate {m3/s}
  ,                                       !- Cooling Minimum Air Flow per Zone Floor Area {m3/s-m2}
  ,                                       !- Cooling Minimum Air Flow {m3/s}
  ,                                       !- Cooling Minimum Air Flow Fraction
  DesignDay,                              !- Heating Design Air Flow Method
  ,                                       !- Heating Design Air Flow Rate {m3/s}
  ,                                       !- Heating Maximum Air Flow per Zone Floor Area {m3/s-m2}
  ,                                       !- Heating Maximum Air Flow {m3/s}
  ,                                       !- Heating Maximum Air Flow Fraction
  No,                                     !- Account for Dedicated Outdoor Air System
  NeutralSupplyAir,                       !- Dedicated Outdoor Air System Control Strategy
  autosize,                               !- Dedicated Outdoor Air Low Setpoint Temperature for Design {C}
  autosize,                               !- Dedicated Outdoor Air High Setpoint Temperature for Design {C}
  Sensible Load Only No Latent Load,      !- Zone Load Sizing Method
  HumidityRatioDifference,                !- Zone Latent Cooling Design Supply Air Humidity Ratio Input Method
  ,                                       !- Zone Dehumidification Design Supply Air Humidity Ratio {kgWater/kgDryAir}
  0.005,                                  !- Zone Cooling Design Supply Air Humidity Ratio Difference {kgWater/kgDryAir}
  HumidityRatioDifference,                !- Zone Latent Heating Design Supply Air Humidity Ratio Input Method
  ,                                       !- Zone Humidification Design Supply Air Humidity Ratio {kgWater/kgDryAir}
  0.005,                                  !- Zone Humidification Design Supply Air Humidity Ratio Difference {kgWater/kgDryAir}
  ,                                       !- Zone Humidistat Dehumidification Set Point Schedule Name
  ,                                       !- Zone Humidistat Humidification Set Point Schedule Name
  ,                                       !- Design Zone Air Distribution Effectiveness in Cooling Mode
  ,                                       !- Design Zone Air Distribution Effectiveness in Heating Mode
  ,                                       !- Design Zone Secondary Recirculation Fraction {dimensionless}
  ,                                       !- Design Minimum Zone Ventilation Efficiency {dimensionless}
  Coincident;                             !- Sizing Option

OS:ZoneHVAC:EquipmentList,
  {ff335326-fb00-4710-babe-052fb8c63526}, !- Handle
  Zone HVAC Equipment List 2,             !- Name
  {8b34f0f5-c413-4bd4-b744-78949501e252}; !- Thermal Zone

OS:AdditionalProperties,
  {62098ad8-c7f6-4f1c-a83f-c621fcf1effd}, !- Handle
  {8b34f0f5-c413-4bd4-b744-78949501e252}, !- Object Name
  ObjectType,                             !- Feature Name 1
  String,                                 !- Feature Data Type 1
  attic - vented;                         !- Feature Value 1

OS:Space,
  {592f3a07-7ec4-4fbd-b0f0-d6c9a6637c3e}, !- Handle
  attic - vented 1,                       !- Name
  ,                                       !- Space Type Name
  ,                                       !- Default Construction Set Name
  ,                                       !- Default Schedule Set Name
  ,                                       !- Direction of Relative North {deg}
  ,                                       !- X Origin {m}
  ,                                       !- Y Origin {m}
  ,                                       !- Z Origin {m}
  ,                                       !- Building Story Name
  {8b34f0f5-c413-4bd4-b744-78949501e252}, !- Thermal Zone Name
  ,                                       !- Part of Total Floor Area
  ,                                       !- Design Specification Outdoor Air Object Name
  ,                                       !- Building Unit Name
  126.003218814318;                       !- Volume {m3}

OS:Material,
  {a0fa2b08-1613-42e4-a27f-cec346d56de1}, !- Handle
  asphalt or fiberglass shingles,         !- Name
  Rough,                                  !- Roughness
  0.00635,                                !- Thickness {m}
  0.162714,                               !- Conductivity {W/m-K}
  1121.4,                                 !- Density {kg/m3}
  1465.45,                                !- Specific Heat {J/kg-K}
  0.9,                                    !- Thermal Absorptance
  0.85,                                   !- Solar Absorptance