
OS:Version,
  {bd95b56a-9fa8-4063-9aa5-179321ac2ffb}, !- Handle
  3.9.0;                                  !- Version Identifier

OS:SimulationControl,
  {aa37ae80-0853-4422-bf19-d176f53d0b61}, !- Handle
  ,                                       !- Do Zone Sizing Calculation
  ,                                       !- Do System Sizing Calculation
  ,                                       !- Do Plant Sizing Calculation
  No;                                     !- Run Simulation for Sizing Periods

OS:Timestep,
  {10c3dbc2-131c-49e1-bd3b-ab6a4c8edebe}, !- Handle
  1;                                      !- Number of Timesteps per Hour

OS:ShadowCalculation,
  {9302172d-ef7f-4761-bf54-89c0d02fdcfd}, !- Handle
  PolygonClipping,                        !- Shading Calculation Method
  ,                                       !- Shading Calculation Update Frequency Method
  20,                                     !- Shading Calculation Update Frequency
  200,                                    !- Maximum Figures in Shadow Overlap Calculations
  ,                                       !- Polygon Clipping Algorithm
  512,                                    !- Pixel Counting Resolution
  ,                                       !- Sky Diffuse Modeling Algorithm
  No,                                     !- Output External Shading Calculation Results
  No,                                     !- Disable Self-Shading Within Shading Zone Groups
  No;                                     !- Disable Self-Shading From Shading Zone Groups to Other Zones

OS:SurfaceConvectionAlgorithm:Outside,
  {ee47d3b4-1873-447d-989a-c5a1272f0106}, !- Handle
  DOE-2;                                  !- Algorithm

OS:SurfaceConvectionAlgorithm:Inside,
  {2c2daff3-ac1d-4164-9ea0-38006453b846}, !- Handle
  TARP;                                   !- Algorithm

OS:ZoneCapacitanceMultiplier:ResearchSpecial,
  {2a5c3969-155b-4954-985c-d2fae0b401c8}, !- Handle
  7,                                      !- Temperature Capacity Multiplier
  15,                                     !- Humidity Capacity Multiplier
  ;                                       !- Carbon Dioxide Capacity Multiplier

OS:ConvergenceLimits,
  {554308ee-9f30-42d0-9c92-7e12c9ccab25}, !- Handle
  0;                                      !- Minimum System Timestep {minutes}

OS:RunPeriod,
  {deee4bd2-63c1-4250-b9ac-4c00eaf5ebae}, !- Handle
  Run Period 1,                           !- Name
  1,                                      !- Begin Month
  1,                                      !- Begin Day of Month
  12,                                     !- End Month
  31,                                     !- End Day of Month
  ,                                       !- Use Weather File Holidays and Special Days
  ,                                       !- Use Weather File Daylight Saving Period
  ,                                       !- Apply Weekend Holiday Rule
  ,                                       !- Use Weather File Rain Indicators
  ,                                       !- Use Weather File Snow Indicators
  ;                                       !- Number of Times Runperiod to be Repeated

OS:PerformancePrecisionTradeoffs,
  {99b0a8f7-f68f-4b1f-8c7f-543348c3d03c}, !- Handle
  ,                                       !- Use Coil Direct Solutions
  CarrollMRT;                             !- Zone Radiant Exchange Algorithm

OS:WeatherFile,
  {ebce5bbd-ca75-4baf-8326-2cd473b7b1bd}, !- Handle
  Buffalo Niagara Intl Ap,                !- City
  NY,                                     !- State Province Region
  USA,                                    !- Country
  TMY3,                                   !- Data Source
  725280,                                 !- WMO Number
  42.93,                                  !- Latitude {deg}
  -78.73,                                 !- Longitude {deg}
  -5,                                     !- Time Zone {hr}
  215,                                    !- Elevation {m}
  /Users/nmoore/github/urbanopt-example-geojson-project/example_project/weather/USA_NY_Buffalo-Greater.Buffalo.Intl.AP.725280_TMY3.epw, !- Url
  6B50E0FF,                               !- Checksum
  ,                                       !- Start Date Actual Year
  Sunday;                                 !- Start Day of Week

OS:YearDescription,
  {ef5d650c-c250-41f6-a929-808899ee6594}, !- Handle
  2007,                                   !- Calendar Year
  ,                                       !- Day of Week for Start Day
  ;                                       !- Is Leap Year

OS:Site,
  {9b47ec24-9d5c-4f7c-a1b0-6c7abc121bac}, !- Handle
  Buffalo Niagara Intl Ap_NY,             !- Name
  42.93,                                  !- Latitude {deg}
  -78.73,                                 !- Longitude {deg}
  -5,                                     !- Time Zone {hr}
  215,                                    !- Elevation {m}
  Suburbs,                                !- Terrain
  Yes;                                    !- Keep Site Location Information

OS:RunPeriodControl:DaylightSavingTime,
  {80d0ad85-d690-43f7-a31c-ed6a5cccec03}, !- Handle
  Mar 12,                                 !- Start Date
  Nov 5;                                  !- End Date

OS:Site:GroundTemperature:Shallow,
  {5e3d0ef9-4d5f-44d8-ae3a-7e5a25ddfa9e}, !- Handle
  4.30207395723828,                       !- January Surface Ground Temperature {C}
  2.29327249652502,                       !- February Surface Ground Temperature {C}
  2.13240047156047,                       !- March Surface Ground Temperature {C}
  3.08567940719286,                       !- April Surface Ground Temperature {C}
  6.91256312497526,                       !- May Surface Ground Temperature {C}
  10.7216195949507,                       !- June Surface Ground Temperature {C}
  14.0238679822574,                       !- July Surface Ground Temperature {C}
  16.1157611184724,                       !- August Surface Ground Temperature {C}
  16.2934789303462,                       !- September Surface Ground Temperature {C}
  14.5920754632847,                       !- October Surface Ground Temperature {C}
  11.374036348653,                        !- November Surface Ground Temperature {C}
  7.68182621661674;                       !- December Surface Ground Temperature {C}

OS:ThermalZone,
  {f901157f-312e-41ef-b62c-adb973070360}, !- Handle
  conditioned space,                      !- Name
  1,                                      !- Multiplier
  ,                                       !- Ceiling Height {m}
  475.79381486208,                        !- Volume {m3}
  ,                                       !- Floor Area {m2}
  ,                                       !- Zone Inside Convection Algorithm
  ,                                       !- Zone Outside Convection Algorithm
  ,                                       !- Zone Conditioning Equipment List Name
  {f2fbb846-af91-4dbd-829e-64993a2880e0}, !- Zone Air Inlet Port List
  {62fe81c3-74ff-4b6d-a534-7f36df0bfa81}, !- Zone Air Exhaust Port List
  {dc8181ca-c311-4ebf-80cf-86fc9aa28c7b}, !- Zone Air Node Name
  {f141eb7a-cb4c-4ede-bfbd-73db2f0f1456}, !- Zone Return Air Port List
  ,                                       !- Primary Daylighting Control Name
  ,                                       !- Fraction of Zone Controlled by Primary Daylighting Control
  ,                                       !- Secondary Daylighting Control Name
  ,                                       !- Fraction of Zone Controlled by Secondary Daylighting Control
  ,                                       !- Illuminance Map Name
  ,                                       !- Group Rendering Name
  {d64c33f4-3818-4965-bc07-63c460cec0a4}, !- Thermostat Name
  No;                                     !- Use Ideal Air Loads

OS:Node,
  {c7befce3-6399-4fe6-901f-80e09f4178fa}, !- Handle
  Node 1,                                 !- Name
  {dc8181ca-c311-4ebf-80cf-86fc9aa28c7b}, !- Inlet Port
  ;                                       !- Outlet Port

OS:Connection,
  {dc8181ca-c311-4ebf-80cf-86fc9aa28c7b}, !- Handle
  {f901157f-312e-41ef-b62c-adb973070360}, !- Source Object
  11,                                     !- Outlet Port
  {c7befce3-6399-4fe6-901f-80e09f4178fa}, !- Target Object
  2;                                      !- Inlet Port

OS:PortList,
  {f2fbb846-af91-4dbd-829e-64993a2880e0}, !- Handle
  {f901157f-312e-41ef-b62c-adb973070360}, !- HVAC Component
  {0e26652a-917c-4adb-8198-fab12ceda71e}; !- Port 1

OS:PortList,
  {62fe81c3-74ff-4b6d-a534-7f36df0bfa81}, !- Handle
  {f901157f-312e-41ef-b62c-adb973070360}; !- HVAC Component

OS:PortList,
  {f141eb7a-cb4c-4ede-bfbd-73db2f0f1456}, !- Handle
  {f901157f-312e-41ef-b62c-adb973070360}, !- HVAC Component
  {2ff09186-c30a-45d0-bf19-419a2b22bf8c}; !- Port 1

OS:Sizing:Zone,
  {6f49088d-4067-4b6f-af35-09d329d3ea45}, !- Handle
  {f901157f-312e-41ef-b62c-adb973070360}, !- Zone or ZoneList Name
  SupplyAirTemperature,                   !- Zone Cooling Design Supply Air Temperature Input Method
  14,                                     !- Zone Cooling Design Supply Air Temperature {C}
  11.11,                                  !- Zone Cooling Design Supply Air Temperature Difference {deltaC}
  SupplyAirTemperature,                   !- Zone Heating Design Supply Air Temperature Input Method
  40,                                     !- Zone Heating Design Supply Air Temperature {C}
  11.11,                                  !- Zone Heating Design Supply Air Temperature Difference {deltaC}
  0.0085,                                 !- Zone Cooling Design Supply Air Humidity Ratio {kg-H2O/kg-air}
  0.008,                                  !- Zone Heating Design Supply Air Humidity Ratio {kg-H2O/kg-air}
  ,                                       !- Zone Heating Sizing Factor
  ,                                       !- Zone Cooling Sizing Factor
  DesignDay,                              !- Cooling Design Air Flow Method
  ,                                       !- Cooling Design Air Flow Rate {m3/s}
  ,                                       !- Cooling Minimum Air Flow per Zone Floor Area {m3/s-m2}
  ,                                       !- Cooling Minimum Air Flow {m3/s}
  ,                                       !- Cooling Minimum Air Flow Fraction
  DesignDay,                              !- Heating Design Air Flow Method
  ,                                       !- Heating Design Air Flow Rate {m3/s}
  ,                                       !- Heating Maximum Air Flow per Zone Floor Area {m3/s-m2}
  ,                                       !- Heating Maximum Air Flow {m3/s}
  ,                                       !- Heating Maximum Air Flow Fraction
  No,                                     !- Account for Dedicated Outdoor Air System
  NeutralSupplyAir,                       !- Dedicated Outdoor Air System Control Strategy
  autosize,                               !- Dedicated Outdoor Air Low Setpoint Temperature for Design {C}
  autosize,                               !- Dedicated Outdoor Air High Setpoint Temperature for Design {C}
  Sensible Load Only No Latent Load,      !- Zone Load Sizing Method
  HumidityRatioDifference,                !- Zone Latent Cooling Design Supply Air Humidity Ratio Input Method
  ,                                       !- Zone Dehumidification Design Supply Air Humidity Ratio {kgWater/kgDryAir}
  0.005,                                  !- Zone Cooling Design Supply Air Humidity Ratio Difference {kgWater/kgDryAir}
  HumidityRatioDifference,                !- Zone Latent Heating Design Supply Air Humidity Ratio Input Method
  ,                                       !- Zone Humidification Design Supply Air Humidity Ratio {kgWater/kgDryAir}
  0.005,                                  !- Zone Humidification Design Supply Air Humidity Ratio Difference {kgWater/kgDryAir}
  ,                                       !- Zone Humidistat Dehumidification Set Point Schedule Name
  ,                                       !- Zone Humidistat Humidification Set Point Schedule Name
  ,                                       !- Design Zone Air Distribution Effectiveness in Cooling Mode
  ,                                       !- Design Zone Air Distribution Effectiveness in Heating Mode
  ,                                       !- Design Zone Secondary Recirculation Fraction {dimensionless}
  ,                                       !- Design Minimum Zone Ventilation Efficiency {dimensionless}
  Coincident;                             !- Sizing Option

OS:ZoneHVAC:EquipmentList,
  {8f813375-85b0-47de-b87a-6be34295b4f5}, !- Handle
  Zone HVAC Equipment List 1,             !- Name
  {f901157f-312e-41ef-b62c-adb973070360}, !- Thermal Zone
  ,                                       !- Load Distribution Scheme
  {0a272a89-1436-4451-a4aa-b5cdeeab423c}, !- Zone Equipment 1
  1,                                      !- Zone Equipment Cooling Sequence 1
  1,                                      !- Zone Equipment Heating or No-Load Sequence 1
  {87fbde21-dbc1-4b45-9111-8fcdd24d1bf6}, !- Zone Equipment Sequential Cooling Fraction Schedule Name 1
  {41cfdcf1-5494-49ec-9364-54413a928960}; !- Zone Equipment Sequential Heating Fraction Schedule Name 1

OS:AdditionalProperties,
  {8bd4c715-b300-4ea2-bcd9-1f8a98ec5533}, !- Handle
  {f901157f-312e-41ef-b62c-adb973070360}, !- Object Name
  ObjectType,                             !- Feature Name 1
  String,                                 !- Feature Data Type 1
  conditioned space;                      !- Feature Value 1

OS:Space,
  {89bf8b3b-79e3-4444-86dc-ed942d674b77}, !- Handle
  conditioned space 1,                    !- Name
  ,                                       !- Space Type Name
  ,                                       !- Default Construction Set Name
  ,                                       !- Default Schedule Set Name
  ,                                       !- Direction of Relative North {deg}
  ,                                       !- X Origin {m}
  ,                                       !- Y Origin {m}
  ,                                       !- Z Origin {m}
  ,                                       !- Building Story Name
  {f901157f-312e-41ef-b62c-adb973070360}, !- Thermal Zone Name
  ,                                       !- Part of Total Floor Area
  ,                                       !- Design Specification Outdoor Air Object Name
  ,                                       !- Building Unit Name
  475.79381486208;                        !- Volume {m3}

OS:Schedule:Ruleset,
  {11abaddb-cce6-46ca-b392-d2b13761631d}, !- Handle
  heating setpoint,                       !- Name
  {403aed45-f252-497d-a8ae-2e33cd9b6737}, !- Schedule Type Limits Name
  {98fd4405-7322-4b97-af00-0ac718386328}; !- Default Day Schedule Name

OS:Schedule:Day,
  {98fd4405-7322-4b97-af00-0ac718386328}, !- Handle
  heating setpoint default day,           !- Name
  {403aed45-f252-497d-a8ae-2e33cd9b6737}, !- Schedule Type Limits Name
  ,                                       !- Interpolate to Timestep
  24,                                     !- Hour 1
  0,                                      !- Minute 1
  0;                                      !- Value Until Time 1

OS:Schedule:Rule,
  {5fbf20c3-aab5-4ece-9efb-988539d45de4}, !- Handle
  heating setpoint allday rule,           !- Name
  {11abaddb-cce6-46ca-b392-d2b13761631d}, !- Schedule Ruleset Name
  0,                                      !- Rule Order
  {389cdbce-227b-41e4-a612-a950cce68fcf}, !- Day Schedule Name
  Yes,                                    !- Apply Sunday
  Yes,                                    !- Apply Monday
  Yes,                                    !- Apply Tuesday
  Yes,                                    !- Apply Wednesday
  Yes,                                    !- Apply Thursday
  Yes,                                    !- Apply Friday
  Yes,                                    !- Apply Saturday
  DateRange,                              !- Date Specification Type
  1,                                      !- Start Month
  1,                                      !- Start Day
  12,                                     !- End Month
  31;                                     !- End Day

OS:Schedule:Day,
  {389cdbce-227b-41e4-a612-a950cce68fcf}, !- Handle
  heating setpoint day,                   !- Name
  {403aed45-f252-497d-a8ae-2e33cd9b6737}, !- Schedule Type Limits Name
  ,                                       !- Interpolate to Timestep
  24,                                     !- Hour 1
  0,                                      !- Minute 1
  20;                                     !- Value Until Time 1

OS:Schedule:Ruleset,
  {ad1d8f24-4e64-49b6-8e0a-658802231c1d}, !- Handle
  cooling setpoint,                       !- Name
  {403aed45-f252-497d-a8ae-2e33cd9b6737}, !- Schedule Type Limits Name
  {fc8744ef-46bc-467e-86dd-5a98b1d3dd87}; !- Default Day Schedule Name

OS:Schedule:Day,
  {fc8744ef-46bc-467e-86dd-5a98b1d3dd87}, !- Handle
  cooling setpoint default day,           !- Name
  {403aed45-f252-497d-a8ae-2e33cd9b6737}, !- Schedule Type Limits Name
  ,                                       !- Interpolate to Timestep
  24,                                     !- Hour 1
  0,                                      !- Minute 1
  0;                                      !- Value Until Time 1

OS:Schedule:Rule,
  {c25ca27e-e3eb-4b0e-a2b2-7cd710f3e01a}, !- Handle
  cooling setpoint allday rule,           !- Name
  {ad1d8f24-4e64-49b6-8e0a-658802231c1d}, !- Schedule Ruleset Name
  0,                                      !- Rule Order
  {3379c6df-4ae6-4cc5-a827-29fad1bed9a3}, !- Day Schedule Name
  Yes,                                    !- Apply Sunday
  Yes,                                    !- Apply Monday
  Yes,                                    !- Apply Tuesday
  Yes,                                    !- Apply Wednesday
  Yes,                                    !- Apply Thursday
  Yes,                                    !- Apply Friday
  Yes,                                    !- Apply Saturday
  DateRange,                              !- Date Specification Type
  1,                                      !- Start Month
  1,                                      !- Start Day
  12,                                     !- End Month
  31;                                     !- End Day

OS:Schedule:Day,
  {3379c6df-4ae6-4cc5-a827-29fad1bed9a3}, !- Handle
  cooling setpoint day,                   !- Name
  {403aed45-f252-497d-a8ae-2e33cd9b6737}, !- Schedule Type Limits Name
  ,                                       !- Interpolate to Timestep
  24,                                     !- Hour 1
  0,                                      !- Minute 1
  25.5555555555556;                       !- Value Until Time 1

OS:ThermostatSetpoint:DualSetpoint,
  {d64c33f4-3818-4965-bc07-63c460cec0a4}, !- Handle
  conditioned space temperature setpoint, !- Name
  {11abaddb-cce6-46ca-b392-d2b13761631d}, !- Heating Setpoint Temperature Schedule Name
  {ad1d8f24-4e64-49b6-8e0a-658802231c1d}, !- Cooling Setpoint Temperature Schedule Name
  0;                                      !- Temperature Difference Between Cutout And Setpoint {deltaC}

OS:ScheduleTypeLimits,
  {403aed45-f252-497d-a8ae-2e33cd9b6737}, !- Handle
  Temperature,                            !- Name
  ,                                       !- Lower Limit Value
  ,                                       !- Upper Limit Value
  Continuous,                             !- Numeric Type
  Temperature;                            !- Unit Type

OS:Surface,
  {5e359639-52d2-4662-85a5-d64902f88e96}, !- Handle
  Roof1,                                  !- Name
  RoofCeiling,                            !- Surface Type
  {65f49c61-6a2b-4b04-80b5-26080a782c95}, !- Construction Name
  {68023ab7-a9bf-4cc5-b602-c72ff525242b}, !- Space Name
  Outdoors,                               !- Outside Boundary Condition
  ,                                       !- Outside Boundary Condition Object
  SunExposed,                             !- Sun Exposure
  WindExposed,                            !- Wind Exposure
  ,                                       !- View Factor to Ground
  ,                                       !- Number of Vertices
  -25.0448166683368, 35.3267874683368, 2.4384, !- X,Y,Z Vertex 1 {m}
  -25.0448166683368, 27.3603626312596, 6.42161241853859, !- X,Y,Z Vertex 2 {m}
  -16.1380829316632, 27.3603626312596, 6.42161241853859, !- X,Y,Z Vertex 3 {m}
  -16.1380829316632, 35.3267874683368, 2.4384; !- X,Y,Z Vertex 4 {m}

OS:AdditionalProperties,
  {2921ac90-bce9-4ca2-be3b-f40c637e5570}, !- Handle
  {5e359639-52d2-4662-85a5-d64902f88e96}, !- Object Name
  Length,                                 !- Feature Name 1
  Double,                                 !- Feature Data Type 1
  29.221567377538118,                     !- Feature Value 1
  Width,                                  !- Feature Name 2
  Double,                                 !- Feature Data Type 2
  29.221567377538118,                     !- Feature Value 2
  Azimuth,                                !- Feature Name 3
  Integer,                                !- Feature Data Type 3
  0,                                      !- Feature Value 3
  Tilt,                                   !- Feature Name 4
  Double,                                 !- Feature Data Type 4
  0.5,                                    !- Feature Value 4
  SurfaceType,                            !- Feature Name 5
  String,                                 !- Feature Data Type 5
  Roof;                                   !- Feature Value 5

OS:ThermalZone,
  {8cb3f2c0-a70a-4f97-8e9e-f3eaf6495c42}, !- Handle
  attic - vented,                         !- Name
  1,                                      !- Multiplier
  ,                                       !- Ceiling Height {m}
  126.002877704413,                       !- Volume {m3}
  ,                                       !- Floor Area {m2}
  ,                                       !- Zone Inside Convection Algorithm
  ,                                       !- Zone Outside Convection Algorithm
  ,                                       !- Zone Conditioning Equipment List Name
  {0cfbbdb0-f019-4cf8-a81f-75f73c37f0b9}, !- Zone Air Inlet Port List
  {34ff6358-0fdb-4902-90a2-c2906d770d8c}, !- Zone Air Exhaust Port List
  {24693209-f452-4c8f-bb25-0957357d3308}, !- Zone Air Node Name
  {1b973f5b-a795-4ab7-9afb-1b5057b0ae3d}, !- Zone Return Air Port List
  ,                                       !- Primary Daylighting Control Name
  ,                                       !- Fraction of Zone Controlled by Primary Daylighting Control
  ,                                       !- Secondary Daylighting Control Name
  ,                                       !- Fraction of Zone Controlled by Secondary Daylighting Control
  ,                                       !- Illuminance Map Name
  ,                                       !- Group Rendering Name
  ,                                       !- Thermostat Name
  No;                                     !- Use Ideal Air Loads

OS:Node,
  {20906068-3ddb-4e64-81f5-ee3dc5d35b96}, !- Handle
  Node 2,                                 !- Name
  {24693209-f452-4c8f-bb25-0957357d3308}, !- Inlet Port
  ;                                       !- Outlet Port

OS:Connection,
  {24693209-f452-4c8f-bb25-0957357d3308}, !- Handle
  {8cb3f2c0-a70a-4f97-8e9e-f3eaf6495c42}, !- Source Object
  11,                                     !- Outlet Port
  {20906068-3ddb-4e64-81f5-ee3dc5d35b96}, !- Target Object
  2;                                      !- Inlet Port

OS:PortList,
  {0cfbbdb0-f019-4cf8-a81f-75f73c37f0b9}, !- Handle
  {8cb3f2c0-a70a-4f97-8e9e-f3eaf6495c42}; !- HVAC Component

OS:PortList,
  {34ff6358-0fdb-4902-90a2-c2906d770d8c}, !- Handle
  {8cb3f2c0-a70a-4f97-8e9e-f3eaf6495c42}; !- HVAC Component

OS:PortList,
  {1b973f5b-a795-4ab7-9afb-1b5057b0ae3d}, !- Handle
  {8cb3f2c0-a70a-4f97-8e9e-f3eaf6495c42}; !- HVAC Component

OS:Sizing:Zone,
  {c53a6097-492c-4c8c-83a2-5586e640c487}, !- Handle
  {8cb3f2c0-a70a-4f97-8e9e-f3eaf6495c42}, !- Zone or ZoneList Name
  SupplyAirTemperature,                   !- Zone Cooling Design Supply Air Temperature Input Method
  14,                                     !- Zone Cooling Design Supply Air Temperature {C}
  11.11,                                  !- Zone Cooling Design Supply Air Temperature Difference {deltaC}
  SupplyAirTemperature,                   !- Zone Heating Design Supply Air Temperature Input Method
  40,                                     !- Zone Heating Design Supply Air Temperature {C}
  11.11,                                  !- Zone Heating Design Supply Air Temperature Difference {deltaC}
  0.0085,                                 !- Zone Cooling Design Supply Air Humidity Ratio {kg-H2O/kg-air}
  0.008,                                  !- Zone Heating Design Supply Air Humidity Ratio {kg-H2O/kg-air}
  ,                                       !- Zone Heating Sizing Factor
  ,                                       !- Zone Cooling Sizing Factor
  DesignDay,                              !- Cooling Design Air Flow Method
  ,                                       !- Cooling Design Air Flow Rate {m3/s}
  ,                                       !- Cooling Minimum Air Flow per Zone Floor Area {m3/s-m2}
  ,                                       !- Cooling Minimum Air Flow {m3/s}
  ,                                       !- Cooling Minimum Air Flow Fraction
  DesignDay,                              !- Heating Design Air Flow Method
  ,                                       !- Heating Design Air Flow Rate {m3/s}
  ,                                       !- Heating Maximum Air Flow per Zone Floor Area {m3/s-m2}
  ,                                       !- Heating Maximum Air Flow {m3/s}
  ,                                       !- Heating Maximum Air Flow Fraction
  No,                                     !- Account for Dedicated Outdoor Air System
  NeutralSupplyAir,                       !- Dedicated Outdoor Air System Control Strategy
  autosize,                               !- Dedicated Outdoor Air Low Setpoint Temperature for Design {C}
  autosize,                               !- Dedicated Outdoor Air High Setpoint Temperature for Design {C}
  Sensible Load Only No Latent Load,      !- Zone Load Sizing Method
  HumidityRatioDifference,                !- Zone Latent Cooling Design Supply Air Humidity Ratio Input Method
  ,                                       !- Zone Dehumidification Design Supply Air Humidity Ratio {kgWater/kgDryAir}
  0.005,                                  !- Zone Cooling Design Supply Air Humidity Ratio Difference {kgWater/kgDryAir}
  HumidityRatioDifference,                !- Zone Latent Heating Design Supply Air Humidity Ratio Input Method
  ,                                       !- Zone Humidification Design Supply Air Humidity Ratio {kgWater/kgDryAir}
  0.005,                                  !- Zone Humidification Design Supply Air Humidity Ratio Difference {kgWater/kgDryAir}
  ,                                       !- Zone Humidistat Dehumidification Set Point Schedule Name
  ,                                       !- Zone Humidistat Humidification Set Point Schedule Name
  ,                                       !- Design Zone Air Distribution Effectiveness in Cooling Mode
  ,                                       !- Design Zone Air Distribution Effectiveness in Heating Mode
  ,                                       !- Design Zone Secondary Recirculation Fraction {dimensionless}
  ,                                       !- Design Minimum Zone Ventilation Efficiency {dimensionless}
  Coincident;                             !- Sizing Option

OS:ZoneHVAC:EquipmentList,
  {9dd6a2c3-ebca-45a8-96c8-383567da2c16}, !- Handle
  Zone HVAC Equipment List 2,             !- Name
  {8cb3f2c0-a70a-4f97-8e9e-f3eaf6495c42}; !- Thermal Zone

OS:AdditionalProperties,
  {7191cca0-f8f0-480a-85d8-10b2e5bc6cc9}, !- Handle
  {8cb3f2c0-a70a-4f97-8e9e-f3eaf6495c42}, !- Object Name
  ObjectType,                             !- Feature Name 1
  String,                                 !- Feature Data Type 1
  attic - vented;                         !- Feature Value 1

OS:Space,
  {68023ab7-a9bf-4cc5-b602-c72ff525242b}, !- Handle
  attic - vented 1,                       !- Name
  ,                                       !- Space Type Name
  ,                                       !- Default Construction Set Name
  ,                                       !- Default Schedule Set Name
  ,                                       !- Direction of Relative North {deg}
  ,                                       !- X Origin {m}
  ,                                       !- Y Origin {m}
  ,                                       !- Z Origin {m}
  ,                                       !- Building Story Name
  {8cb3f2c0-a70a-4f97-8e9e-f3eaf6495c42}, !- Thermal Zone Name
  ,                                       !- Part of Total Floor Area
  ,                                       !- Design Specification Outdoor Air Object Name
  ,                                       !- Building Unit Name
  126.002877704413;                       !- Volume {m3}

OS:Material,
  {64fb177a-9046-4e49-81f8-a68c1af465b1}, !- Handle
  asphalt or fiberglass shingles,         !- Name
  Rough,                                  !- Roughness
  0.00635,                                !- Thickness {m}
  0.162714,                               !- Conductivity {W/m-K}
  1121.4,                                 !- Density {kg/m3}
  1465.45,                                !- Specific Heat {J/kg-K}
  0.9,                                    !- Thermal Absorptance
  0.85,                                   !- Solar Absorptance