
OS:Version,
  {1ae68a50-1e50-4420-86fb-3dcaed1d0b91}, !- Handle
  3.9.0;                                  !- Version Identifier

OS:SimulationControl,
  {bcbdd199-4bd7-4e2e-b095-cad0dfd0dbdd}, !- Handle
  ,                                       !- Do Zone Sizing Calculation
  ,                                       !- Do System Sizing Calculation
  ,                                       !- Do Plant Sizing Calculation
  No;                                     !- Run Simulation for Sizing Periods

OS:Timestep,
  {03653dbe-b10a-4fed-895d-502b11979897}, !- Handle
  1;                                      !- Number of Timesteps per Hour

OS:ShadowCalculation,
  {981618f4-ee28-458a-9bba-78b4247e9d17}, !- Handle
  PolygonClipping,                        !- Shading Calculation Method
  ,                                       !- Shading Calculation Update Frequency Method
  20,                                     !- Shading Calculation Update Frequency
  200,                                    !- Maximum Figures in Shadow Overlap Calculations
  ,                                       !- Polygon Clipping Algorithm
  512,                                    !- Pixel Counting Resolution
  ,                                       !- Sky Diffuse Modeling Algorithm
  No,                                     !- Output External Shading Calculation Results
  No,                                     !- Disable Self-Shading Within Shading Zone Groups
  No;                                     !- Disable Self-Shading From Shading Zone Groups to Other Zones

OS:SurfaceConvectionAlgorithm:Outside,
  {5eedaa23-e8cf-4922-a8af-b0715a20686c}, !- Handle
  DOE-2;                                  !- Algorithm

OS:SurfaceConvectionAlgorithm:Inside,
  {a9f6cb31-1638-4dbd-b391-b9c2fb0e7a7e}, !- Handle
  TARP;                                   !- Algorithm

OS:ZoneCapacitanceMultiplier:ResearchSpecial,
  {09779c69-8246-4010-8d35-2d768e314480}, !- Handle
  7,                                      !- Temperature Capacity Multiplier
  15,                                     !- Humidity Capacity Multiplier
  ;                                       !- Carbon Dioxide Capacity Multiplier

OS:ConvergenceLimits,
  {b87c5192-c6c1-4120-adda-91ac89a96242}, !- Handle
  0;                                      !- Minimum System Timestep {minutes}

OS:RunPeriod,
  {4c2fa5fc-db82-4ac8-90c8-f7870e61e43e}, !- Handle
  Run Period 1,                           !- Name
  1,                                      !- Begin Month
  1,                                      !- Begin Day of Month
  12,                                     !- End Month
  31,                                     !- End Day of Month
  ,                                       !- Use Weather File Holidays and Special Days
  ,                                       !- Use Weather File Daylight Saving Period
  ,                                       !- Apply Weekend Holiday Rule
  ,                                       !- Use Weather File Rain Indicators
  ,                                       !- Use Weather File Snow Indicators
  ;                                       !- Number of Times Runperiod to be Repeated

OS:PerformancePrecisionTradeoffs,
  {6ac8c174-b65a-4d49-9036-8501d5627370}, !- Handle
  ,                                       !- Use Coil Direct Solutions
  CarrollMRT;                             !- Zone Radiant Exchange Algorithm

OS:WeatherFile,
  {8f07f564-5e36-4d01-baa8-372ce4e81c5f}, !- Handle
  Buffalo Niagara Intl Ap,                !- City
  NY,                                     !- State Province Region
  USA,                                    !- Country
  TMY3,                                   !- Data Source
  725280,                                 !- WMO Number
  42.93,                                  !- Latitude {deg}
  -78.73,                                 !- Longitude {deg}
  -5,                                     !- Time Zone {hr}
  215,                                    !- Elevation {m}
  /Users/nmoore/github/urbanopt-example-geojson-project/example_project/weather/USA_NY_Buffalo-Greater.Buffalo.Intl.AP.725280_TMY3.epw, !- Url
  6B50E0FF,                               !- Checksum
  ,                                       !- Start Date Actual Year
  Sunday;                                 !- Start Day of Week

OS:YearDescription,
  {b531608c-70c0-477b-9ccb-63df44c62750}, !- Handle
  2007,                                   !- Calendar Year
  ,                                       !- Day of Week for Start Day
  ;                                       !- Is Leap Year

OS:Site,
  {bad90f71-7fc1-494d-8e54-d879e387cc19}, !- Handle
  Buffalo Niagara Intl Ap_NY,             !- Name
  42.93,                                  !- Latitude {deg}
  -78.73,                                 !- Longitude {deg}
  -5,                                     !- Time Zone {hr}
  215,                                    !- Elevation {m}
  Suburbs,                                !- Terrain
  Yes;                                    !- Keep Site Location Information

OS:RunPeriodControl:DaylightSavingTime,
  {efb324e6-3f19-4d2c-9889-733a478222ff}, !- Handle
  Mar 12,                                 !- Start Date
  Nov 5;                                  !- End Date

OS:Site:GroundTemperature:Shallow,
  {3d718813-aaab-4a9b-bb1b-7b2813c03e53}, !- Handle
  4.30207395723828,                       !- January Surface Ground Temperature {C}
  2.29327249652502,                       !- February Surface Ground Temperature {C}
  2.13240047156047,                       !- March Surface Ground Temperature {C}
  3.08567940719286,                       !- April Surface Ground Temperature {C}
  6.91256312497526,                       !- May Surface Ground Temperature {C}
  10.7216195949507,                       !- June Surface Ground Temperature {C}
  14.0238679822574,                       !- July Surface Ground Temperature {C}
  16.1157611184724,                       !- August Surface Ground Temperature {C}
  16.2934789303462,                       !- September Surface Ground Temperature {C}
  14.5920754632847,                       !- October Surface Ground Temperature {C}
  11.374036348653,                        !- November Surface Ground Temperature {C}
  7.68182621661674;                       !- December Surface Ground Temperature {C}

OS:ThermalZone,
  {adc07d98-d4e5-4d93-a4f6-b0b0beabb9fc}, !- Handle
  conditioned space,                      !- Name
  1,                                      !- Multiplier
  ,                                       !- Ceiling Height {m}
  692.06373070848,                        !- Volume {m3}
  ,                                       !- Floor Area {m2}
  ,                                       !- Zone Inside Convection Algorithm
  ,                                       !- Zone Outside Convection Algorithm
  ,                                       !- Zone Conditioning Equipment List Name
  {88d9ae00-702f-4a98-ae5e-4da6a8ab5776}, !- Zone Air Inlet Port List
  {d4c5b5f6-94a8-4a2c-bea8-082dc90a0ac9}, !- Zone Air Exhaust Port List
  {b176ff26-19f5-4383-8dd7-6767852309ee}, !- Zone Air Node Name
  {a1dd6c81-e350-406e-823c-867754993e48}, !- Zone Return Air Port List
  ,                                       !- Primary Daylighting Control Name
  ,                                       !- Fraction of Zone Controlled by Primary Daylighting Control
  ,                                       !- Secondary Daylighting Control Name
  ,                                       !- Fraction of Zone Controlled by Secondary Daylighting Control
  ,                                       !- Illuminance Map Name
  ,                                       !- Group Rendering Name
  {ac372967-90c0-4bdd-bcc3-5497d6f791ac}, !- Thermostat Name
  No;                                     !- Use Ideal Air Loads

OS:Node,
  {920757fd-3c32-4c69-8c01-5bf205cb253b}, !- Handle
  Node 1,                                 !- Name
  {b176ff26-19f5-4383-8dd7-6767852309ee}, !- Inlet Port
  ;                                       !- Outlet Port

OS:Connection,
  {b176ff26-19f5-4383-8dd7-6767852309ee}, !- Handle
  {adc07d98-d4e5-4d93-a4f6-b0b0beabb9fc}, !- Source Object
  11,                                     !- Outlet Port
  {920757fd-3c32-4c69-8c01-5bf205cb253b}, !- Target Object
  2;                                      !- Inlet Port

OS:PortList,
  {88d9ae00-702f-4a98-ae5e-4da6a8ab5776}, !- Handle
  {adc07d98-d4e5-4d93-a4f6-b0b0beabb9fc}, !- HVAC Component
  {0c933c9f-7e8f-414d-ac29-b7d99607821a}, !- Port 1
  {0dba4df8-f89c-4afb-9836-bdc65f607417}; !- Port 2

OS:PortList,
  {d4c5b5f6-94a8-4a2c-bea8-082dc90a0ac9}, !- Handle
  {adc07d98-d4e5-4d93-a4f6-b0b0beabb9fc}; !- HVAC Component

OS:PortList,
  {a1dd6c81-e350-406e-823c-867754993e48}, !- Handle
  {adc07d98-d4e5-4d93-a4f6-b0b0beabb9fc}, !- HVAC Component
  {0da9514b-b27a-47b5-be9f-700a4b3b4b73}, !- Port 1
  {150f0e8c-785e-4705-8deb-caf46e20da3a}; !- Port 2

OS:Sizing:Zone,
  {17c9a95e-aecf-40b2-b459-45d311de5341}, !- Handle
  {adc07d98-d4e5-4d93-a4f6-b0b0beabb9fc}, !- Zone or ZoneList Name
  SupplyAirTemperature,                   !- Zone Cooling Design Supply Air Temperature Input Method
  14,                                     !- Zone Cooling Design Supply Air Temperature {C}
  11.11,                                  !- Zone Cooling Design Supply Air Temperature Difference {deltaC}
  SupplyAirTemperature,                   !- Zone Heating Design Supply Air Temperature Input Method
  40,                                     !- Zone Heating Design Supply Air Temperature {C}
  11.11,                                  !- Zone Heating Design Supply Air Temperature Difference {deltaC}
  0.0085,                                 !- Zone Cooling Design Supply Air Humidity Ratio {kg-H2O/kg-air}
  0.008,                                  !- Zone Heating Design Supply Air Humidity Ratio {kg-H2O/kg-air}
  ,                                       !- Zone Heating Sizing Factor
  ,                                       !- Zone Cooling Sizing Factor
  DesignDay,                              !- Cooling Design Air Flow Method
  ,                                       !- Cooling Design Air Flow Rate {m3/s}
  ,                                       !- Cooling Minimum Air Flow per Zone Floor Area {m3/s-m2}
  ,                                       !- Cooling Minimum Air Flow {m3/s}
  ,                                       !- Cooling Minimum Air Flow Fraction
  DesignDay,                              !- Heating Design Air Flow Method
  ,                                       !- Heating Design Air Flow Rate {m3/s}
  ,                                       !- Heating Maximum Air Flow per Zone Floor Area {m3/s-m2}
  ,                                       !- Heating Maximum Air Flow {m3/s}
  ,                                       !- Heating Maximum Air Flow Fraction
  No,                                     !- Account for Dedicated Outdoor Air System
  NeutralSupplyAir,                       !- Dedicated Outdoor Air System Control Strategy
  autosize,                               !- Dedicated Outdoor Air Low Setpoint Temperature for Design {C}
  autosize,                               !- Dedicated Outdoor Air High Setpoint Temperature for Design {C}
  Sensible Load Only No Latent Load,      !- Zone Load Sizing Method
  HumidityRatioDifference,                !- Zone Latent Cooling Design Supply Air Humidity Ratio Input Method
  ,                                       !- Zone Dehumidification Design Supply Air Humidity Ratio {kgWater/kgDryAir}
  0.005,                                  !- Zone Cooling Design Supply Air Humidity Ratio Difference {kgWater/kgDryAir}
  HumidityRatioDifference,                !- Zone Latent Heating Design Supply Air Humidity Ratio Input Method
  ,                                       !- Zone Humidification Design Supply Air Humidity Ratio {kgWater/kgDryAir}
  0.005,                                  !- Zone Humidification Design Supply Air Humidity Ratio Difference {kgWater/kgDryAir}
  ,                                       !- Zone Humidistat Dehumidification Set Point Schedule Name
  ,                                       !- Zone Humidistat Humidification Set Point Schedule Name
  ,                                       !- Design Zone Air Distribution Effectiveness in Cooling Mode
  ,                                       !- Design Zone Air Distribution Effectiveness in Heating Mode
  ,                                       !- Design Zone Secondary Recirculation Fraction {dimensionless}
  ,                                       !- Design Minimum Zone Ventilation Efficiency {dimensionless}
  Coincident;                             !- Sizing Option

OS:ZoneHVAC:EquipmentList,
  {f02c1fd1-a750-454c-9ee3-23e86831b621}, !- Handle
  Zone HVAC Equipment List 1,             !- Name
  {adc07d98-d4e5-4d93-a4f6-b0b0beabb9fc}, !- Thermal Zone
  ,                                       !- Load Distribution Scheme
  {0d347052-db48-44b6-871f-6dce8cdc87ba}, !- Zone Equipment 1
  1,                                      !- Zone Equipment Cooling Sequence 1
  1,                                      !- Zone Equipment Heating or No-Load Sequence 1
  {7f35f44c-3ea4-4bb6-a719-82f320674557}, !- Zone Equipment Sequential Cooling Fraction Schedule Name 1
  {c579ac80-86cd-4c55-8a94-063328ebabef}, !- Zone Equipment Sequential Heating Fraction Schedule Name 1
  {ec6ba765-e0eb-423c-9540-0716b7fbe255}, !- Zone Equipment 2
  2,                                      !- Zone Equipment Cooling Sequence 2
  2,                                      !- Zone Equipment Heating or No-Load Sequence 2
  {7f739b60-7e76-4e86-b328-7d274077a841}, !- Zone Equipment Sequential Cooling Fraction Schedule Name 2
  {bf477671-bb3e-49f2-a6a0-0b99abebb3ba}; !- Zone Equipment Sequential Heating Fraction Schedule Name 2

OS:AdditionalProperties,
  {e7535b61-4d09-4f19-8e69-1d14ed8f73af}, !- Handle
  {adc07d98-d4e5-4d93-a4f6-b0b0beabb9fc}, !- Object Name
  ObjectType,                             !- Feature Name 1
  String,                                 !- Feature Data Type 1
  conditioned space;                      !- Feature Value 1

OS:Space,
  {83528701-a125-400c-bca3-ec6c1a74a2c1}, !- Handle
  conditioned space 1,                    !- Name
  ,                                       !- Space Type Name
  ,                                       !- Default Construction Set Name
  ,                                       !- Default Schedule Set Name
  ,                                       !- Direction of Relative North {deg}
  ,                                       !- X Origin {m}
  ,                                       !- Y Origin {m}
  ,                                       !- Z Origin {m}
  ,                                       !- Building Story Name
  {adc07d98-d4e5-4d93-a4f6-b0b0beabb9fc}, !- Thermal Zone Name
  ,                                       !- Part of Total Floor Area
  ,                                       !- Design Specification Outdoor Air Object Name
  ,                                       !- Building Unit Name
  692.06373070848;                        !- Volume {m3}

OS:Schedule:Ruleset,
  {99bf7df0-53fc-443d-ac1a-380e4e1291dd}, !- Handle
  heating setpoint,                       !- Name
  {6821b0d7-9be7-4f3d-bef2-8619f2666d29}, !- Schedule Type Limits Name
  {66ebd7bc-caa8-4a0a-b452-4832249c3978}; !- Default Day Schedule Name

OS:Schedule:Day,
  {66ebd7bc-caa8-4a0a-b452-4832249c3978}, !- Handle
  heating setpoint default day,           !- Name
  {6821b0d7-9be7-4f3d-bef2-8619f2666d29}, !- Schedule Type Limits Name
  ,                                       !- Interpolate to Timestep
  24,                                     !- Hour 1
  0,                                      !- Minute 1
  0;                                      !- Value Until Time 1

OS:Schedule:Rule,
  {7e0ce391-c16a-4a25-a7a6-1355400f79ba}, !- Handle
  heating setpoint allday rule,           !- Name
  {99bf7df0-53fc-443d-ac1a-380e4e1291dd}, !- Schedule Ruleset Name
  0,                                      !- Rule Order
  {e7eda65c-27f5-45d9-b325-d31dc28198bd}, !- Day Schedule Name
  Yes,                                    !- Apply Sunday
  Yes,                                    !- Apply Monday
  Yes,                                    !- Apply Tuesday
  Yes,                                    !- Apply Wednesday
  Yes,                                    !- Apply Thursday
  Yes,                                    !- Apply Friday
  Yes,                                    !- Apply Saturday
  DateRange,                              !- Date Specification Type
  1,                                      !- Start Month
  1,                                      !- Start Day
  12,                                     !- End Month
  31;                                     !- End Day

OS:Schedule:Day,
  {e7eda65c-27f5-45d9-b325-d31dc28198bd}, !- Handle
  heating setpoint day,                   !- Name
  {6821b0d7-9be7-4f3d-bef2-8619f2666d29}, !- Schedule Type Limits Name
  ,                                       !- Interpolate to Timestep
  24,                                     !- Hour 1
  0,                                      !- Minute 1
  20;                                     !- Value Until Time 1

OS:Schedule:Ruleset,
  {57198476-9a11-4293-a83e-f55ade701ee3}, !- Handle
  cooling setpoint,                       !- Name
  {6821b0d7-9be7-4f3d-bef2-8619f2666d29}, !- Schedule Type Limits Name
  {6f31d5bd-6446-460d-85a0-809cac298355}; !- Default Day Schedule Name

OS:Schedule:Day,
  {6f31d5bd-6446-460d-85a0-809cac298355}, !- Handle
  cooling setpoint default day,           !- Name
  {6821b0d7-9be7-4f3d-bef2-8619f2666d29}, !- Schedule Type Limits Name
  ,                                       !- Interpolate to Timestep
  24,                                     !- Hour 1
  0,                                      !- Minute 1
  0;                                      !- Value Until Time 1

OS:Schedule:Rule,
  {21381923-b203-4ab5-87a3-7d585ccb1e34}, !- Handle
  cooling setpoint allday rule,           !- Name
  {57198476-9a11-4293-a83e-f55ade701ee3}, !- Schedule Ruleset Name
  0,                                      !- Rule Order
  {5a53143e-6d93-4a1c-9b41-4e3998c5dbac}, !- Day Schedule Name
  Yes,                                    !- Apply Sunday
  Yes,                                    !- Apply Monday
  Yes,                                    !- Apply Tuesday
  Yes,                                    !- Apply Wednesday
  Yes,                                    !- Apply Thursday
  Yes,                                    !- Apply Friday
  Yes,                                    !- Apply Saturday
  DateRange,                              !- Date Specification Type
  1,                                      !- Start Month
  1,                                      !- Start Day
  12,                                     !- End Month
  31;                                     !- End Day

OS:Schedule:Day,
  {5a53143e-6d93-4a1c-9b41-4e3998c5dbac}, !- Handle
  cooling setpoint day,                   !- Name
  {6821b0d7-9be7-4f3d-bef2-8619f2666d29}, !- Schedule Type Limits Name
  ,                                       !- Interpolate to Timestep
  24,                                     !- Hour 1
  0,                                      !- Minute 1
  25.5555555555556;                       !- Value Until Time 1

OS:ThermostatSetpoint:DualSetpoint,
  {ac372967-90c0-4bdd-bcc3-5497d6f791ac}, !- Handle
  conditioned space temperature setpoint, !- Name
  {99bf7df0-53fc-443d-ac1a-380e4e1291dd}, !- Heating Setpoint Temperature Schedule Name
  {57198476-9a11-4293-a83e-f55ade701ee3}, !- Cooling Setpoint Temperature Schedule Name
  0;                                      !- Temperature Difference Between Cutout And Setpoint {deltaC}

OS:ScheduleTypeLimits,
  {6821b0d7-9be7-4f3d-bef2-8619f2666d29}, !- Handle
  Temperature,                            !- Name
  ,                                       !- Lower Limit Value
  ,                                       !- Upper Limit Value
  Continuous,                             !- Numeric Type
  Temperature;                            !- Unit Type

OS:Surface,
  {914d0506-a593-4c40-9548-0fc368b42040}, !- Handle
  Roof1,                                  !- Name
  RoofCeiling,                            !- Surface Type
  {5eefc39c-5787-4624-8eae-ccda4d8f66aa}, !- Construction Name
  {0a520cdb-ca73-4d87-9e29-74b42ab7b46f}, !- Space Name
  Outdoors,                               !- Outside Boundary Condition
  ,                                       !- Outside Boundary Condition Object
  SunExposed,                             !- Sun Exposure
  WindExposed,                            !- Wind Exposure
  ,                                       !- View Factor to Ground
  ,                                       !- Number of Vertices
  -26.9347048849634, 58.0557891618865, 2.4384, !- X,Y,Z Vertex 1 {m}
  -26.9347048849634, 46.7895631136661, 8.0715130241102, !- X,Y,Z Vertex 2 {m}
  -14.3386812381136, 46.7895631136661, 8.0715130241102, !- X,Y,Z Vertex 3 {m}
  -14.3386812381136, 58.0557891618865, 2.4384; !- X,Y,Z Vertex 4 {m}

OS:AdditionalProperties,
  {90c45ce7-e556-4142-9889-af1451c7f8bc}, !- Handle
  {914d0506-a593-4c40-9548-0fc368b42040}, !- Object Name
  Length,                                 !- Feature Name 1
  Double,                                 !- Feature Data Type 1
  41.325536899113608,                     !- Feature Value 1
  Width,                                  !- Feature Name 2
  Double,                                 !- Feature Data Type 2
  41.325536899113601,                     !- Feature Value 2
  Azimuth,                                !- Feature Name 3
  Integer,                                !- Feature Data Type 3
  0,                                      !- Feature Value 3
  Tilt,                                   !- Feature Name 4
  Double,                                 !- Feature Data Type 4
  0.5,                                    !- Feature Value 4
  SurfaceType,                            !- Feature Name 5
  String,                                 !- Feature Data Type 5
  Roof;                                   !- Feature Value 5

OS:ThermalZone,
  {4106a8a3-a1bc-4d6b-86b1-a1469b83645b}, !- Handle
  attic - vented,                         !- Name
  1,                                      !- Multiplier
  ,                                       !- Ceiling Height {m}
  356.389957095237,                       !- Volume {m3}
  ,                                       !- Floor Area {m2}
  ,                                       !- Zone Inside Convection Algorithm
  ,                                       !- Zone Outside Convection Algorithm
  ,                                       !- Zone Conditioning Equipment List Name
  {893b3632-e43d-4fda-b5e4-e6056cbfa482}, !- Zone Air Inlet Port List
  {b40b1de6-fac4-4841-b384-c55da43cc342}, !- Zone Air Exhaust Port List
  {ea2cfe3d-c031-493d-9208-6bcba3170e0c}, !- Zone Air Node Name
  {92a03efd-67fe-4b49-bb49-876fa48f814c}, !- Zone Return Air Port List
  ,                                       !- Primary Daylighting Control Name
  ,                                       !- Fraction of Zone Controlled by Primary Daylighting Control
  ,                                       !- Secondary Daylighting Control Name
  ,                                       !- Fraction of Zone Controlled by Secondary Daylighting Control
  ,                                       !- Illuminance Map Name
  ,                                       !- Group Rendering Name
  ,                                       !- Thermostat Name
  No;                                     !- Use Ideal Air Loads

OS:Node,
  {527a1866-2e16-41a1-bf06-ef49ac4426ac}, !- Handle
  Node 2,                                 !- Name
  {ea2cfe3d-c031-493d-9208-6bcba3170e0c}, !- Inlet Port
  ;                                       !- Outlet Port

OS:Connection,
  {ea2cfe3d-c031-493d-9208-6bcba3170e0c}, !- Handle
  {4106a8a3-a1bc-4d6b-86b1-a1469b83645b}, !- Source Object
  11,                                     !- Outlet Port
  {527a1866-2e16-41a1-bf06-ef49ac4426ac}, !- Target Object
  2;                                      !- Inlet Port

OS:PortList,
  {893b3632-e43d-4fda-b5e4-e6056cbfa482}, !- Handle
  {4106a8a3-a1bc-4d6b-86b1-a1469b83645b}; !- HVAC Component

OS:PortList,
  {b40b1de6-fac4-4841-b384-c55da43cc342}, !- Handle
  {4106a8a3-a1bc-4d6b-86b1-a1469b83645b}; !- HVAC Component

OS:PortList,
  {92a03efd-67fe-4b49-bb49-876fa48f814c}, !- Handle
  {4106a8a3-a1bc-4d6b-86b1-a1469b83645b}; !- HVAC Component

OS:Sizing:Zone,
  {a4fbf9bb-0fd8-4231-a0ad-3691dcf5f6f1}, !- Handle
  {4106a8a3-a1bc-4d6b-86b1-a1469b83645b}, !- Zone or ZoneList Name
  SupplyAirTemperature,                   !- Zone Cooling Design Supply Air Temperature Input Method
  14,                                     !- Zone Cooling Design Supply Air Temperature {C}
  11.11,                                  !- Zone Cooling Design Supply Air Temperature Difference {deltaC}
  SupplyAirTemperature,                   !- Zone Heating Design Supply Air Temperature Input Method
  40,                                     !- Zone Heating Design Supply Air Temperature {C}
  11.11,                                  !- Zone Heating Design Supply Air Temperature Difference {deltaC}
  0.0085,                                 !- Zone Cooling Design Supply Air Humidity Ratio {kg-H2O/kg-air}
  0.008,                                  !- Zone Heating Design Supply Air Humidity Ratio {kg-H2O/kg-air}
  ,                                       !- Zone Heating Sizing Factor
  ,                                       !- Zone Cooling Sizing Factor
  DesignDay,                              !- Cooling Design Air Flow Method
  ,                                       !- Cooling Design Air Flow Rate {m3/s}
  ,                                       !- Cooling Minimum Air Flow per Zone Floor Area {m3/s-m2}
  ,                                       !- Cooling Minimum Air Flow {m3/s}
  ,                                       !- Cooling Minimum Air Flow Fraction
  DesignDay,                              !- Heating Design Air Flow Method
  ,                                       !- Heating Design Air Flow Rate {m3/s}
  ,                                       !- Heating Maximum Air Flow per Zone Floor Area {m3/s-m2}
  ,                                       !- Heating Maximum Air Flow {m3/s}
  ,                                       !- Heating Maximum Air Flow Fraction
  No,                                     !- Account for Dedicated Outdoor Air System
  NeutralSupplyAir,                       !- Dedicated Outdoor Air System Control Strategy
  autosize,                               !- Dedicated Outdoor Air Low Setpoint Temperature for Design {C}
  autosize,                               !- Dedicated Outdoor Air High Setpoint Temperature for Design {C}
  Sensible Load Only No Latent Load,      !- Zone Load Sizing Method
  HumidityRatioDifference,                !- Zone Latent Cooling Design Supply Air Humidity Ratio Input Method
  ,                                       !- Zone Dehumidification Design Supply Air Humidity Ratio {kgWater/kgDryAir}
  0.005,                                  !- Zone Cooling Design Supply Air Humidity Ratio Difference {kgWater/kgDryAir}
  HumidityRatioDifference,                !- Zone Latent Heating Design Supply Air Humidity Ratio Input Method
  ,                                       !- Zone Humidification Design Supply Air Humidity Ratio {kgWater/kgDryAir}
  0.005,                                  !- Zone Humidification Design Supply Air Humidity Ratio Difference {kgWater/kgDryAir}
  ,                                       !- Zone Humidistat Dehumidification Set Point Schedule Name
  ,                                       !- Zone Humidistat Humidification Set Point Schedule Name
  ,                                       !- Design Zone Air Distribution Effectiveness in Cooling Mode
  ,                                       !- Design Zone Air Distribution Effectiveness in Heating Mode
  ,                                       !- Design Zone Secondary Recirculation Fraction {dimensionless}
  ,                                       !- Design Minimum Zone Ventilation Efficiency {dimensionless}
  Coincident;                             !- Sizing Option

OS:ZoneHVAC:EquipmentList,
  {c31a0c41-347a-41dd-9eb4-07458479d814}, !- Handle
  Zone HVAC Equipment List 2,             !- Name
  {4106a8a3-a1bc-4d6b-86b1-a1469b83645b}; !- Thermal Zone

OS:AdditionalProperties,
  {7ea682fc-626f-4b37-9225-5898810ddc55}, !- Handle
  {4106a8a3-a1bc-4d6b-86b1-a1469b83645b}, !- Object Name
  ObjectType,                             !- Feature Name 1
  String,                                 !- Feature Data Type 1
  attic - vented;                         !- Feature Value 1

OS:Space,
  {0a520cdb-ca73-4d87-9e29-74b42ab7b46f}, !- Handle
  attic - vented 1,                       !- Name
  ,                                       !- Space Type Name
  ,                                       !- Default Construction Set Name
  ,                                       !- Default Schedule Set Name
  ,                                       !- Direction of Relative North {deg}
  ,                                       !- X Origin {m}
  ,                                       !- Y Origin {m}
  ,                                       !- Z Origin {m}
  ,                                       !- Building Story Name
  {4106a8a3-a1bc-4d6b-86b1-a1469b83645b}, !- Thermal Zone Name
  ,                                       !- Part of Total Floor Area
  ,                                       !- Design Specification Outdoor Air Object Name
  ,                                       !- Building Unit Name
  356.389957095237;                       !- Volume {m3}

OS:Material,