
OS:Version,
  {a1c89c19-0391-49b9-96bf-9f2909962dfd}, !- Handle
  3.10.0;                                 !- Version Identifier

OS:SimulationControl,
  {39d22d11-bdde-4b6e-81e1-a06b0ab461da}, !- Handle
  ,                                       !- Do Zone Sizing Calculation
  ,                                       !- Do System Sizing Calculation
  ,                                       !- Do Plant Sizing Calculation
  No;                                     !- Run Simulation for Sizing Periods

OS:Timestep,
  {060b06cf-b329-47a9-85f3-3c050d34df61}, !- Handle
  1;                                      !- Number of Timesteps per Hour

OS:ShadowCalculation,
  {b2d54270-2756-4962-91a8-2285fb9128f8}, !- Handle
  PolygonClipping,                        !- Shading Calculation Method
  ,                                       !- Shading Calculation Update Frequency Method
  20,                                     !- Shading Calculation Update Frequency
  200,                                    !- Maximum Figures in Shadow Overlap Calculations
  ,                                       !- Polygon Clipping Algorithm
  512,                                    !- Pixel Counting Resolution
  ,                                       !- Sky Diffuse Modeling Algorithm
  No,                                     !- Output External Shading Calculation Results
  No,                                     !- Disable Self-Shading Within Shading Zone Groups
  No;                                     !- Disable Self-Shading From Shading Zone Groups to Other Zones

OS:SurfaceConvectionAlgorithm:Outside,
  {bcdacbbf-8152-41aa-9545-5c73b471a68d}, !- Handle
  DOE-2;                                  !- Algorithm

OS:SurfaceConvectionAlgorithm:Inside,
  {69c18a44-f578-4ca4-98cd-969cb8a9572d}, !- Handle
  TARP;                                   !- Algorithm

OS:ZoneCapacitanceMultiplier:ResearchSpecial,
  {233aa86b-6899-4400-83dc-df19c436a442}, !- Handle
  7,                                      !- Temperature Capacity Multiplier
  15,                                     !- Humidity Capacity Multiplier
  ;                                       !- Carbon Dioxide Capacity Multiplier

OS:ConvergenceLimits,
  {460a6816-4c22-4f50-a53c-a37d8761e3ce}, !- Handle
  0;                                      !- Minimum System Timestep {minutes}

OS:RunPeriod,
  {6579aed7-b469-4c8d-912a-94828f7a1d33}, !- Handle
  Run Period 1,                           !- Name
  1,                                      !- Begin Month
  1,                                      !- Begin Day of Month
  12,                                     !- End Month
  31,                                     !- End Day of Month
  ,                                       !- Use Weather File Holidays and Special Days
  ,                                       !- Use Weather File Daylight Saving Period
  ,                                       !- Apply Weekend Holiday Rule
  ,                                       !- Use Weather File Rain Indicators
  ,                                       !- Use Weather File Snow Indicators
  ;                                       !- Number of Times Runperiod to be Repeated

OS:PerformancePrecisionTradeoffs,
  {c97f43d3-d051-47d8-b4ba-376a6c73caee}, !- Handle
  ,                                       !- Use Coil Direct Solutions
  CarrollMRT;                             !- Zone Radiant Exchange Algorithm

OS:WeatherFile,
  {caac8fbd-d2d7-4732-aecc-aeb59a8f36af}, !- Handle
  Buffalo Niagara Intl Ap,                !- City
  NY,                                     !- State Province Region
  USA,                                    !- Country
  TMY3,                                   !- Data Source
  725280,                                 !- WMO Number
  42.93,                                  !- Latitude {deg}
  -78.73,                                 !- Longitude {deg}
  -5,                                     !- Time Zone {hr}
  215,                                    !- Elevation {m}
  /Users/nmoore/github/urbanopt-example-geojson-project/example_project/weather/USA_NY_Buffalo-Greater.Buffalo.Intl.AP.725280_TMY3.epw, !- Url
  6B50E0FF,                               !- Checksum
  ,                                       !- Start Date Actual Year
  Sunday;                                 !- Start Day of Week

OS:YearDescription,
  {7371f852-0146-4dab-b969-91495159434f}, !- Handle
  2007,                                   !- Calendar Year
  ,                                       !- Day of Week for Start Day
  ;                                       !- Is Leap Year

OS:Site,
  {57207a4b-e900-4a6d-a7d0-9b9337b7869b}, !- Handle
  Buffalo Niagara Intl Ap_NY,             !- Name
  42.93,                                  !- Latitude {deg}
  -78.73,                                 !- Longitude {deg}
  -5,                                     !- Time Zone {hr}
  215,                                    !- Elevation {m}
  Suburbs,                                !- Terrain
  Yes;                                    !- Keep Site Location Information

OS:RunPeriodControl:DaylightSavingTime,
  {08463953-1554-4730-88de-bc505008d3a7}, !- Handle
  Mar 12,                                 !- Start Date
  Nov 5;                                  !- End Date

OS:Site:GroundTemperature:Shallow,
  {4d117e1c-8ff9-4f0f-881e-cb3e131ef40b}, !- Handle
  4.30207395723828,                       !- January Surface Ground Temperature {C}
  2.29327249652502,                       !- February Surface Ground Temperature {C}
  2.13240047156047,                       !- March Surface Ground Temperature {C}
  3.08567940719286,                       !- April Surface Ground Temperature {C}
  6.91256312497526,                       !- May Surface Ground Temperature {C}
  10.7216195949507,                       !- June Surface Ground Temperature {C}
  14.0238679822574,                       !- July Surface Ground Temperature {C}
  16.1157611184724,                       !- August Surface Ground Temperature {C}
  16.2934789303462,                       !- September Surface Ground Temperature {C}
  14.5920754632847,                       !- October Surface Ground Temperature {C}
  11.374036348653,                        !- November Surface Ground Temperature {C}
  7.68182621661674;                       !- December Surface Ground Temperature {C}

OS:ThermalZone,
  {a5a11199-8a5f-4a33-b64d-ceaf33797ef2}, !- Handle
  conditioned space,                      !- Name
  1,                                      !- Multiplier
  ,                                       !- Ceiling Height {m}
  692.06373070848,                        !- Volume {m3}
  ,                                       !- Floor Area {m2}
  ,                                       !- Zone Inside Convection Algorithm
  ,                                       !- Zone Outside Convection Algorithm
  ,                                       !- Zone Conditioning Equipment List Name
  {1abef791-c45b-4340-8eee-a761e8f0dca5}, !- Zone Air Inlet Port List
  {a3668412-7ace-47fc-a4d1-637c49c905a6}, !- Zone Air Exhaust Port List
  {ea3e7e1f-c7f3-49c8-b1b3-9546d505a41d}, !- Zone Air Node Name
  {f125770c-e739-43e3-8fbd-ad2875ebb537}, !- Zone Return Air Port List
  ,                                       !- Primary Daylighting Control Name
  ,                                       !- Fraction of Zone Controlled by Primary Daylighting Control
  ,                                       !- Secondary Daylighting Control Name
  ,                                       !- Fraction of Zone Controlled by Secondary Daylighting Control
  ,                                       !- Illuminance Map Name
  ,                                       !- Group Rendering Name
  {82dd3600-0ffb-480d-b84d-ec7df6bcd1b6}, !- Thermostat Name
  No;                                     !- Use Ideal Air Loads

OS:Node,
  {0a5e9464-b9bf-4e8c-b3b1-3cece58084bf}, !- Handle
  Node 1,                                 !- Name
  {ea3e7e1f-c7f3-49c8-b1b3-9546d505a41d}, !- Inlet Port
  ;                                       !- Outlet Port

OS:Connection,
  {ea3e7e1f-c7f3-49c8-b1b3-9546d505a41d}, !- Handle
  {a5a11199-8a5f-4a33-b64d-ceaf33797ef2}, !- Source Object
  11,                                     !- Outlet Port
  {0a5e9464-b9bf-4e8c-b3b1-3cece58084bf}, !- Target Object
  2;                                      !- Inlet Port

OS:PortList,
  {1abef791-c45b-4340-8eee-a761e8f0dca5}, !- Handle
  {a5a11199-8a5f-4a33-b64d-ceaf33797ef2}, !- HVAC Component
  {ff0aa535-faf6-40d4-b89e-450e94c75aca}, !- Port 1
  {5f2f533e-18b2-4b91-86ef-cca9689a0520}; !- Port 2

OS:PortList,
  {a3668412-7ace-47fc-a4d1-637c49c905a6}, !- Handle
  {a5a11199-8a5f-4a33-b64d-ceaf33797ef2}; !- HVAC Component

OS:PortList,
  {f125770c-e739-43e3-8fbd-ad2875ebb537}, !- Handle
  {a5a11199-8a5f-4a33-b64d-ceaf33797ef2}, !- HVAC Component
  {4f7dfb4c-cfe9-4750-b691-7f5c9d149c6d}, !- Port 1
  {1355173f-2d90-4fc5-a268-5288320d1b36}; !- Port 2

OS:Sizing:Zone,
  {1830d01c-eff3-4a3a-a7ee-d25a06b5b944}, !- Handle
  {a5a11199-8a5f-4a33-b64d-ceaf33797ef2}, !- Zone or ZoneList Name
  SupplyAirTemperature,                   !- Zone Cooling Design Supply Air Temperature Input Method
  14,                                     !- Zone Cooling Design Supply Air Temperature {C}
  11.11,                                  !- Zone Cooling Design Supply Air Temperature Difference {deltaC}
  SupplyAirTemperature,                   !- Zone Heating Design Supply Air Temperature Input Method
  40,                                     !- Zone Heating Design Supply Air Temperature {C}
  11.11,                                  !- Zone Heating Design Supply Air Temperature Difference {deltaC}
  0.0085,                                 !- Zone Cooling Design Supply Air Humidity Ratio {kg-H2O/kg-air}
  0.008,                                  !- Zone Heating Design Supply Air Humidity Ratio {kg-H2O/kg-air}
  ,                                       !- Zone Heating Sizing Factor
  ,                                       !- Zone Cooling Sizing Factor
  DesignDay,                              !- Cooling Design Air Flow Method
  ,                                       !- Cooling Design Air Flow Rate {m3/s}
  ,                                       !- Cooling Minimum Air Flow per Zone Floor Area {m3/s-m2}
  ,                                       !- Cooling Minimum Air Flow {m3/s}
  ,                                       !- Cooling Minimum Air Flow Fraction
  DesignDay,                              !- Heating Design Air Flow Method
  ,                                       !- Heating Design Air Flow Rate {m3/s}
  ,                                       !- Heating Maximum Air Flow per Zone Floor Area {m3/s-m2}
  ,                                       !- Heating Maximum Air Flow {m3/s}
  ,                                       !- Heating Maximum Air Flow Fraction
  No,                                     !- Account for Dedicated Outdoor Air System
  NeutralSupplyAir,                       !- Dedicated Outdoor Air System Control Strategy
  autosize,                               !- Dedicated Outdoor Air Low Setpoint Temperature for Design {C}
  autosize,                               !- Dedicated Outdoor Air High Setpoint Temperature for Design {C}
  Sensible Load Only No Latent Load,      !- Zone Load Sizing Method
  HumidityRatioDifference,                !- Zone Latent Cooling Design Supply Air Humidity Ratio Input Method
  ,                                       !- Zone Dehumidification Design Supply Air Humidity Ratio {kgWater/kgDryAir}
  0.005,                                  !- Zone Cooling Design Supply Air Humidity Ratio Difference {kgWater/kgDryAir}
  HumidityRatioDifference,                !- Zone Latent Heating Design Supply Air Humidity Ratio Input Method
  ,                                       !- Zone Humidification Design Supply Air Humidity Ratio {kgWater/kgDryAir}
  0.005,                                  !- Zone Humidification Design Supply Air Humidity Ratio Difference {kgWater/kgDryAir}
  ,                                       !- Zone Humidistat Dehumidification Set Point Schedule Name
  ,                                       !- Zone Humidistat Humidification Set Point Schedule Name
  ,                                       !- Design Zone Air Distribution Effectiveness in Cooling Mode
  ,                                       !- Design Zone Air Distribution Effectiveness in Heating Mode
  ,                                       !- Design Zone Secondary Recirculation Fraction {dimensionless}
  ,                                       !- Design Minimum Zone Ventilation Efficiency {dimensionless}
  Coincident;                             !- Sizing Option

OS:ZoneHVAC:EquipmentList,
  {5e47e39f-e2ad-4284-b59b-91c6b74c4c78}, !- Handle
  Zone HVAC Equipment List 1,             !- Name
  {a5a11199-8a5f-4a33-b64d-ceaf33797ef2}, !- Thermal Zone
  ,                                       !- Load Distribution Scheme
  {23639d2a-a4c7-4149-83e5-a084e60191b9}, !- Zone Equipment 1
  1,                                      !- Zone Equipment Cooling Sequence 1
  1,                                      !- Zone Equipment Heating or No-Load Sequence 1
  {e57b78bb-b56f-4594-afa3-d28e50d1529d}, !- Zone Equipment Sequential Cooling Fraction Schedule Name 1
  {dfd73905-36b3-4993-8ec2-0515de42f6ef}, !- Zone Equipment Sequential Heating Fraction Schedule Name 1
  {597497d0-3396-4b30-a417-4b6bfc5fd4a3}, !- Zone Equipment 2
  2,                                      !- Zone Equipment Cooling Sequence 2
  2,                                      !- Zone Equipment Heating or No-Load Sequence 2
  {a687b341-a732-4b9c-a8c8-d424a21ce22b}, !- Zone Equipment Sequential Cooling Fraction Schedule Name 2
  {a50d4d27-08cc-461d-a8c0-a1139d6c24c1}; !- Zone Equipment Sequential Heating Fraction Schedule Name 2

OS:AdditionalProperties,
  {0c2d725c-9dc5-4ff2-9475-fe107dd255f1}, !- Handle
  {a5a11199-8a5f-4a33-b64d-ceaf33797ef2}, !- Object Name
  ObjectType,                             !- Feature Name 1
  String,                                 !- Feature Data Type 1
  conditioned space;                      !- Feature Value 1

OS:Space,
  {fc8fe9e4-0156-46a7-9fbe-76b6955c62b7}, !- Handle
  conditioned space 1,                    !- Name
  ,                                       !- Space Type Name
  ,                                       !- Default Construction Set Name
  ,                                       !- Default Schedule Set Name
  ,                                       !- Direction of Relative North {deg}
  ,                                       !- X Origin {m}
  ,                                       !- Y Origin {m}
  ,                                       !- Z Origin {m}
  ,                                       !- Building Story Name
  {a5a11199-8a5f-4a33-b64d-ceaf33797ef2}, !- Thermal Zone Name
  ,                                       !- Part of Total Floor Area
  ,                                       !- Design Specification Outdoor Air Object Name
  ,                                       !- Building Unit Name
  692.06373070848;                        !- Volume {m3}

OS:Schedule:Ruleset,
  {26912b77-1f3f-4cd9-9b73-9bd4d7d2852c}, !- Handle
  heating setpoint,                       !- Name
  {ce89a2c7-33f4-4c44-b197-d532d364debf}, !- Schedule Type Limits Name
  {7a651fe6-497a-4b45-979c-9643e89180b1}; !- Default Day Schedule Name

OS:Schedule:Day,
  {7a651fe6-497a-4b45-979c-9643e89180b1}, !- Handle
  heating setpoint default day,           !- Name
  {ce89a2c7-33f4-4c44-b197-d532d364debf}, !- Schedule Type Limits Name
  ,                                       !- Interpolate to Timestep
  24,                                     !- Hour 1
  0,                                      !- Minute 1
  0;                                      !- Value Until Time 1

OS:Schedule:Rule,
  {cff61e26-c142-4594-aee1-a4e4c965b392}, !- Handle
  heating setpoint allday rule,           !- Name
  {26912b77-1f3f-4cd9-9b73-9bd4d7d2852c}, !- Schedule Ruleset Name
  0,                                      !- Rule Order
  {bab5f6ef-bd49-4be4-9801-a7647d104bd9}, !- Day Schedule Name
  Yes,                                    !- Apply Sunday
  Yes,                                    !- Apply Monday
  Yes,                                    !- Apply Tuesday
  Yes,                                    !- Apply Wednesday
  Yes,                                    !- Apply Thursday
  Yes,                                    !- Apply Friday
  Yes,                                    !- Apply Saturday
  DateRange,                              !- Date Specification Type
  1,                                      !- Start Month
  1,                                      !- Start Day
  12,                                     !- End Month
  31;                                     !- End Day

OS:Schedule:Day,
  {bab5f6ef-bd49-4be4-9801-a7647d104bd9}, !- Handle
  heating setpoint day,                   !- Name
  {ce89a2c7-33f4-4c44-b197-d532d364debf}, !- Schedule Type Limits Name
  ,                                       !- Interpolate to Timestep
  24,                                     !- Hour 1
  0,                                      !- Minute 1
  20;                                     !- Value Until Time 1

OS:Schedule:Ruleset,
  {1f3b7a70-0c20-4653-86b3-79bff4ad0c05}, !- Handle
  cooling setpoint,                       !- Name
  {ce89a2c7-33f4-4c44-b197-d532d364debf}, !- Schedule Type Limits Name
  {eb8bd19a-a7ae-41ba-b900-dd6808b5d29f}; !- Default Day Schedule Name

OS:Schedule:Day,
  {eb8bd19a-a7ae-41ba-b900-dd6808b5d29f}, !- Handle
  cooling setpoint default day,           !- Name
  {ce89a2c7-33f4-4c44-b197-d532d364debf}, !- Schedule Type Limits Name
  ,                                       !- Interpolate to Timestep
  24,                                     !- Hour 1
  0,                                      !- Minute 1
  0;                                      !- Value Until Time 1

OS:Schedule:Rule,
  {ed4491cb-a792-40e1-900e-509a1ef8b2a4}, !- Handle
  cooling setpoint allday rule,           !- Name
  {1f3b7a70-0c20-4653-86b3-79bff4ad0c05}, !- Schedule Ruleset Name
  0,                                      !- Rule Order
  {ee7d64f1-11fb-4820-8987-3bf5965e4009}, !- Day Schedule Name
  Yes,                                    !- Apply Sunday
  Yes,                                    !- Apply Monday
  Yes,                                    !- Apply Tuesday
  Yes,                                    !- Apply Wednesday
  Yes,                                    !- Apply Thursday
  Yes,                                    !- Apply Friday
  Yes,                                    !- Apply Saturday
  DateRange,                              !- Date Specification Type
  1,                                      !- Start Month
  1,                                      !- Start Day
  12,                                     !- End Month
  31;                                     !- End Day

OS:Schedule:Day,
  {ee7d64f1-11fb-4820-8987-3bf5965e4009}, !- Handle
  cooling setpoint day,                   !- Name
  {ce89a2c7-33f4-4c44-b197-d532d364debf}, !- Schedule Type Limits Name
  ,                                       !- Interpolate to Timestep
  24,                                     !- Hour 1
  0,                                      !- Minute 1
  25.5555555555556;                       !- Value Until Time 1

OS:ThermostatSetpoint:DualSetpoint,
  {82dd3600-0ffb-480d-b84d-ec7df6bcd1b6}, !- Handle
  conditioned space temperature setpoint, !- Name
  {26912b77-1f3f-4cd9-9b73-9bd4d7d2852c}, !- Heating Setpoint Temperature Schedule Name
  {1f3b7a70-0c20-4653-86b3-79bff4ad0c05}, !- Cooling Setpoint Temperature Schedule Name
  0;                                      !- Temperature Difference Between Cutout And Setpoint {deltaC}

OS:ScheduleTypeLimits,
  {ce89a2c7-33f4-4c44-b197-d532d364debf}, !- Handle
  Temperature,                            !- Name
  ,                                       !- Lower Limit Value
  ,                                       !- Upper Limit Value
  Continuous,                             !- Numeric Type
  Temperature;                            !- Unit Type

OS:Surface,
  {cf339a17-20a4-47e4-a36e-0a219a9a2a63}, !- Handle
  Roof1,                                  !- Name
  RoofCeiling,                            !- Surface Type
  {32e2f453-60ca-4900-8249-685a46c2f7f6}, !- Construction Name
  {0b2c7d96-969f-4581-b07d-787a7421f1a4}, !- Space Name
  Outdoors,                               !- Outside Boundary Condition
  ,                                       !- Outside Boundary Condition Object
  SunExposed,                             !- Sun Exposure
  WindExposed,                            !- Wind Exposure
  ,                                       !- View Factor to Ground
  ,                                       !- Number of Vertices
  -26.9347048849634, 58.0557891618865, 2.4384, !- X,Y,Z Vertex 1 {m}
  -26.9347048849634, 46.7895631136661, 8.0715130241102, !- X,Y,Z Vertex 2 {m}
  -14.3386812381136, 46.7895631136661, 8.0715130241102, !- X,Y,Z Vertex 3 {m}
  -14.3386812381136, 58.0557891618865, 2.4384; !- X,Y,Z Vertex 4 {m}

OS:AdditionalProperties,
  {16c861a1-9c1e-4051-b15f-201518b4c672}, !- Handle
  {cf339a17-20a4-47e4-a36e-0a219a9a2a63}, !- Object Name
  Length,                                 !- Feature Name 1
  Double,                                 !- Feature Data Type 1
  41.325536899113608,                     !- Feature Value 1
  Width,                                  !- Feature Name 2
  Double,                                 !- Feature Data Type 2
  41.325536899113601,                     !- Feature Value 2
  Azimuth,                                !- Feature Name 3
  Integer,                                !- Feature Data Type 3
  0,                                      !- Feature Value 3
  Tilt,                                   !- Feature Name 4
  Double,                                 !- Feature Data Type 4
  0.5,                                    !- Feature Value 4
  SurfaceType,                            !- Feature Name 5
  String,                                 !- Feature Data Type 5
  Roof;                                   !- Feature Value 5

OS:ThermalZone,
  {a6bb8b21-c5f9-4d74-9721-0333f106b7c9}, !- Handle
  attic - vented,                         !- Name
  1,                                      !- Multiplier
  ,                                       !- Ceiling Height {m}
  356.390921899745,                       !- Volume {m3}
  ,                                       !- Floor Area {m2}
  ,                                       !- Zone Inside Convection Algorithm
  ,                                       !- Zone Outside Convection Algorithm
  ,                                       !- Zone Conditioning Equipment List Name
  {d7a72e25-48d3-4695-8aa5-03ed2d6c8938}, !- Zone Air Inlet Port List
  {15efc0bc-cda3-4589-b4cf-d63fd70719d0}, !- Zone Air Exhaust Port List
  {e385d7a1-1403-49ec-bdbf-d0ce77db4f6f}, !- Zone Air Node Name
  {b467cd78-d7b6-46b3-9aca-12f536f75102}, !- Zone Return Air Port List
  ,                                       !- Primary Daylighting Control Name
  ,                                       !- Fraction of Zone Controlled by Primary Daylighting Control
  ,                                       !- Secondary Daylighting Control Name
  ,                                       !- Fraction of Zone Controlled by Secondary Daylighting Control
  ,                                       !- Illuminance Map Name
  ,                                       !- Group Rendering Name
  ,                                       !- Thermostat Name
  No;                                     !- Use Ideal Air Loads

OS:Node,
  {b2a9d58f-487e-403a-b4c6-7a62a369156b}, !- Handle
  Node 2,                                 !- Name
  {e385d7a1-1403-49ec-bdbf-d0ce77db4f6f}, !- Inlet Port
  ;                                       !- Outlet Port

OS:Connection,
  {e385d7a1-1403-49ec-bdbf-d0ce77db4f6f}, !- Handle
  {a6bb8b21-c5f9-4d74-9721-0333f106b7c9}, !- Source Object
  11,                                     !- Outlet Port
  {b2a9d58f-487e-403a-b4c6-7a62a369156b}, !- Target Object
  2;                                      !- Inlet Port

OS:PortList,
  {d7a72e25-48d3-4695-8aa5-03ed2d6c8938}, !- Handle
  {a6bb8b21-c5f9-4d74-9721-0333f106b7c9}; !- HVAC Component

OS:PortList,
  {15efc0bc-cda3-4589-b4cf-d63fd70719d0}, !- Handle
  {a6bb8b21-c5f9-4d74-9721-0333f106b7c9}; !- HVAC Component

OS:PortList,
  {b467cd78-d7b6-46b3-9aca-12f536f75102}, !- Handle
  {a6bb8b21-c5f9-4d74-9721-0333f106b7c9}; !- HVAC Component

OS:Sizing:Zone,
  {6cdc5717-7ff2-4d54-acb5-ee51e53f4956}, !- Handle
  {a6bb8b21-c5f9-4d74-9721-0333f106b7c9}, !- Zone or ZoneList Name
  SupplyAirTemperature,                   !- Zone Cooling Design Supply Air Temperature Input Method
  14,                                     !- Zone Cooling Design Supply Air Temperature {C}
  11.11,                                  !- Zone Cooling Design Supply Air Temperature Difference {deltaC}
  SupplyAirTemperature,                   !- Zone Heating Design Supply Air Temperature Input Method
  40,                                     !- Zone Heating Design Supply Air Temperature {C}
  11.11,                                  !- Zone Heating Design Supply Air Temperature Difference {deltaC}
  0.0085,                                 !- Zone Cooling Design Supply Air Humidity Ratio {kg-H2O/kg-air}
  0.008,                                  !- Zone Heating Design Supply Air Humidity Ratio {kg-H2O/kg-air}
  ,                                       !- Zone Heating Sizing Factor
  ,                                       !- Zone Cooling Sizing Factor
  DesignDay,                              !- Cooling Design Air Flow Method
  ,                                       !- Cooling Design Air Flow Rate {m3/s}
  ,                                       !- Cooling Minimum Air Flow per Zone Floor Area {m3/s-m2}
  ,                                       !- Cooling Minimum Air Flow {m3/s}
  ,                                       !- Cooling Minimum Air Flow Fraction
  DesignDay,                              !- Heating Design Air Flow Method
  ,                                       !- Heating Design Air Flow Rate {m3/s}
  ,                                       !- Heating Maximum Air Flow per Zone Floor Area {m3/s-m2}
  ,                                       !- Heating Maximum Air Flow {m3/s}
  ,                                       !- Heating Maximum Air Flow Fraction
  No,                                     !- Account for Dedicated Outdoor Air System
  NeutralSupplyAir,                       !- Dedicated Outdoor Air System Control Strategy
  autosize,                               !- Dedicated Outdoor Air Low Setpoint Temperature for Design {C}
  autosize,                               !- Dedicated Outdoor Air High Setpoint Temperature for Design {C}
  Sensible Load Only No Latent Load,      !- Zone Load Sizing Method
  HumidityRatioDifference,                !- Zone Latent Cooling Design Supply Air Humidity Ratio Input Method
  ,                                       !- Zone Dehumidification Design Supply Air Humidity Ratio {kgWater/kgDryAir}
  0.005,                                  !- Zone Cooling Design Supply Air Humidity Ratio Difference {kgWater/kgDryAir}
  HumidityRatioDifference,                !- Zone Latent Heating Design Supply Air Humidity Ratio Input Method
  ,                                       !- Zone Humidification Design Supply Air Humidity Ratio {kgWater/kgDryAir}
  0.005,                                  !- Zone Humidification Design Supply Air Humidity Ratio Difference {kgWater/kgDryAir}
  ,                                       !- Zone Humidistat Dehumidification Set Point Schedule Name
  ,                                       !- Zone Humidistat Humidification Set Point Schedule Name
  ,                                       !- Design Zone Air Distribution Effectiveness in Cooling Mode
  ,                                       !- Design Zone Air Distribution Effectiveness in Heating Mode
  ,                                       !- Design Zone Secondary Recirculation Fraction {dimensionless}
  ,                                       !- Design Minimum Zone Ventilation Efficiency {dimensionless}
  Coincident;                             !- Sizing Option

OS:ZoneHVAC:EquipmentList,
  {c1d73771-d49d-4b35-9006-f938b0bf0fb9}, !- Handle
  Zone HVAC Equipment List 2,             !- Name
  {a6bb8b21-c5f9-4d74-9721-0333f106b7c9}; !- Thermal Zone

OS:AdditionalProperties,
  {b3a6c7bb-9bf3-40b9-8469-4e7aa3d842a1}, !- Handle
  {a6bb8b21-c5f9-4d74-9721-0333f106b7c9}, !- Object Name
  ObjectType,                             !- Feature Name 1
  String,                                 !- Feature Data Type 1
  attic - vented;                         !- Feature Value 1

OS:Space,
  {0b2c7d96-969f-4581-b07d-787a7421f1a4}, !- Handle
  attic - vented 1,                       !- Name
  ,                                       !- Space Type Name
  ,                                       !- Default Construction Set Name
  ,                                       !- Default Schedule Set Name
  ,                                       !- Direction of Relative North {deg}
  ,                                       !- X Origin {m}
  ,                                       !- Y Origin {m}
  ,                                       !- Z Origin {m}
  ,                                       !- Building Story Name
  {a6bb8b21-c5f9-4d74-9721-0333f106b7c9}, !- Thermal Zone Name
  ,                                       !- Part of Total Floor Area
  ,                                       !- Design Specification Outdoor Air Object Name
  ,                                       !- Building Unit Name
  356.390921899745;                       !- Volume {m3}

OS:Material,