
OS:Version,
  {8872e930-4c5c-4f80-9cd5-3d8869cd247b}, !- Handle
  3.9.0;                                  !- Version Identifier

OS:SimulationControl,
  {4d089ba9-7ea7-4341-8f40-0f12158ddadf}, !- Handle
  ,                                       !- Do Zone Sizing Calculation
  ,                                       !- Do System Sizing Calculation
  ,                                       !- Do Plant Sizing Calculation
  No;                                     !- Run Simulation for Sizing Periods

OS:Timestep,
  {5281ad53-e8a0-4c6f-a78d-42bf0c9813e9}, !- Handle
  1;                                      !- Number of Timesteps per Hour

OS:ShadowCalculation,
  {d3dec858-cbf8-494d-943a-503283ce3c3e}, !- Handle
  PolygonClipping,                        !- Shading Calculation Method
  ,                                       !- Shading Calculation Update Frequency Method
  20,                                     !- Shading Calculation Update Frequency
  200,                                    !- Maximum Figures in Shadow Overlap Calculations
  ,                                       !- Polygon Clipping Algorithm
  512,                                    !- Pixel Counting Resolution
  ,                                       !- Sky Diffuse Modeling Algorithm
  No,                                     !- Output External Shading Calculation Results
  No,                                     !- Disable Self-Shading Within Shading Zone Groups
  No;                                     !- Disable Self-Shading From Shading Zone Groups to Other Zones

OS:SurfaceConvectionAlgorithm:Outside,
  {4f84fcf3-7408-4d59-9583-a1d35bec5a17}, !- Handle
  DOE-2;                                  !- Algorithm

OS:SurfaceConvectionAlgorithm:Inside,
  {48ad88c7-a466-49b4-a756-4076e505c4c0}, !- Handle
  TARP;                                   !- Algorithm

OS:ZoneCapacitanceMultiplier:ResearchSpecial,
  {ade8f22a-7f93-4980-9ff0-67cbe536af2e}, !- Handle
  7,                                      !- Temperature Capacity Multiplier
  15,                                     !- Humidity Capacity Multiplier
  ;                                       !- Carbon Dioxide Capacity Multiplier

OS:ConvergenceLimits,
  {f4c537b8-49d1-4f79-84ec-15dc52d5b514}, !- Handle
  0;                                      !- Minimum System Timestep {minutes}

OS:RunPeriod,
  {7461863d-7801-4420-93fd-f537652aac5d}, !- Handle
  Run Period 1,                           !- Name
  1,                                      !- Begin Month
  1,                                      !- Begin Day of Month
  12,                                     !- End Month
  31,                                     !- End Day of Month
  ,                                       !- Use Weather File Holidays and Special Days
  ,                                       !- Use Weather File Daylight Saving Period
  ,                                       !- Apply Weekend Holiday Rule
  ,                                       !- Use Weather File Rain Indicators
  ,                                       !- Use Weather File Snow Indicators
  ;                                       !- Number of Times Runperiod to be Repeated

OS:PerformancePrecisionTradeoffs,
  {597b8527-150f-4af6-a001-b070ca0fb2f7}, !- Handle
  ,                                       !- Use Coil Direct Solutions
  CarrollMRT;                             !- Zone Radiant Exchange Algorithm

OS:WeatherFile,
  {68a45aeb-7d4a-42b3-9a8f-a02ac1e239a4}, !- Handle
  Buffalo Niagara Intl Ap,                !- City
  NY,                                     !- State Province Region
  USA,                                    !- Country
  TMY3,                                   !- Data Source
  725280,                                 !- WMO Number
  42.93,                                  !- Latitude {deg}
  -78.73,                                 !- Longitude {deg}
  -5,                                     !- Time Zone {hr}
  215,                                    !- Elevation {m}
  /Users/nmoore/github/urbanopt-example-geojson-project/example_project/weather/USA_NY_Buffalo-Greater.Buffalo.Intl.AP.725280_TMY3.epw, !- Url
  6B50E0FF,                               !- Checksum
  ,                                       !- Start Date Actual Year
  Sunday;                                 !- Start Day of Week

OS:YearDescription,
  {cf8f7848-3a41-4c30-8961-9cf59eadecc2}, !- Handle
  2007,                                   !- Calendar Year
  ,                                       !- Day of Week for Start Day
  ;                                       !- Is Leap Year

OS:Site,
  {dd38292b-d44e-4e55-8887-fff2ca638afa}, !- Handle
  Buffalo Niagara Intl Ap_NY,             !- Name
  42.93,                                  !- Latitude {deg}
  -78.73,                                 !- Longitude {deg}
  -5,                                     !- Time Zone {hr}
  215,                                    !- Elevation {m}
  Suburbs,                                !- Terrain
  Yes;                                    !- Keep Site Location Information

OS:RunPeriodControl:DaylightSavingTime,
  {a2eb0468-8f40-4f29-af63-08c23ee6f612}, !- Handle
  Mar 12,                                 !- Start Date
  Nov 5;                                  !- End Date

OS:Site:GroundTemperature:Shallow,
  {20302bd3-b656-4b37-afe0-99f6a6b34c11}, !- Handle
  4.30207395723828,                       !- January Surface Ground Temperature {C}
  2.29327249652502,                       !- February Surface Ground Temperature {C}
  2.13240047156047,                       !- March Surface Ground Temperature {C}
  3.08567940719286,                       !- April Surface Ground Temperature {C}
  6.91256312497526,                       !- May Surface Ground Temperature {C}
  10.7216195949507,                       !- June Surface Ground Temperature {C}
  14.0238679822574,                       !- July Surface Ground Temperature {C}
  16.1157611184724,                       !- August Surface Ground Temperature {C}
  16.2934789303462,                       !- September Surface Ground Temperature {C}
  14.5920754632847,                       !- October Surface Ground Temperature {C}
  11.374036348653,                        !- November Surface Ground Temperature {C}
  7.68182621661674;                       !- December Surface Ground Temperature {C}

OS:ThermalZone,
  {70b76436-41a1-400e-9715-04f56a5825e8}, !- Handle
  conditioned space,                      !- Name
  1,                                      !- Multiplier
  ,                                       !- Ceiling Height {m}
  346.03186535424,                        !- Volume {m3}
  ,                                       !- Floor Area {m2}
  ,                                       !- Zone Inside Convection Algorithm
  ,                                       !- Zone Outside Convection Algorithm
  ,                                       !- Zone Conditioning Equipment List Name
  {92b587b4-1b8f-4595-94dd-27023e5ae1b4}, !- Zone Air Inlet Port List
  {0c55a13b-fa2e-4216-913a-cd8554389e61}, !- Zone Air Exhaust Port List
  {55159f15-eee5-489a-a5b8-ed3253272b99}, !- Zone Air Node Name
  {66da5e3d-77c5-4e49-a0c5-3733b8513ac3}, !- Zone Return Air Port List
  ,                                       !- Primary Daylighting Control Name
  ,                                       !- Fraction of Zone Controlled by Primary Daylighting Control
  ,                                       !- Secondary Daylighting Control Name
  ,                                       !- Fraction of Zone Controlled by Secondary Daylighting Control
  ,                                       !- Illuminance Map Name
  ,                                       !- Group Rendering Name
  {d2bbbf2a-e301-4589-9883-b246944c16e5}, !- Thermostat Name
  No;                                     !- Use Ideal Air Loads

OS:Node,
  {6d0fb7bb-94ac-4616-99a7-eab5f437daf1}, !- Handle
  Node 1,                                 !- Name
  {55159f15-eee5-489a-a5b8-ed3253272b99}, !- Inlet Port
  ;                                       !- Outlet Port

OS:Connection,
  {55159f15-eee5-489a-a5b8-ed3253272b99}, !- Handle
  {70b76436-41a1-400e-9715-04f56a5825e8}, !- Source Object
  11,                                     !- Outlet Port
  {6d0fb7bb-94ac-4616-99a7-eab5f437daf1}, !- Target Object
  2;                                      !- Inlet Port

OS:PortList,
  {92b587b4-1b8f-4595-94dd-27023e5ae1b4}, !- Handle
  {70b76436-41a1-400e-9715-04f56a5825e8}, !- HVAC Component
  {67d1e1d8-0d4c-43af-b15d-5cad13cf6cff}; !- Port 1

OS:PortList,
  {0c55a13b-fa2e-4216-913a-cd8554389e61}, !- Handle
  {70b76436-41a1-400e-9715-04f56a5825e8}; !- HVAC Component

OS:PortList,
  {66da5e3d-77c5-4e49-a0c5-3733b8513ac3}, !- Handle
  {70b76436-41a1-400e-9715-04f56a5825e8}, !- HVAC Component
  {c466fb34-25e6-4195-b2e1-92255d5994b3}; !- Port 1

OS:Sizing:Zone,
  {334d1295-7602-4bcf-acf6-dca08ba7c7d0}, !- Handle
  {70b76436-41a1-400e-9715-04f56a5825e8}, !- Zone or ZoneList Name
  SupplyAirTemperature,                   !- Zone Cooling Design Supply Air Temperature Input Method
  14,                                     !- Zone Cooling Design Supply Air Temperature {C}
  11.11,                                  !- Zone Cooling Design Supply Air Temperature Difference {deltaC}
  SupplyAirTemperature,                   !- Zone Heating Design Supply Air Temperature Input Method
  40,                                     !- Zone Heating Design Supply Air Temperature {C}
  11.11,                                  !- Zone Heating Design Supply Air Temperature Difference {deltaC}
  0.0085,                                 !- Zone Cooling Design Supply Air Humidity Ratio {kg-H2O/kg-air}
  0.008,                                  !- Zone Heating Design Supply Air Humidity Ratio {kg-H2O/kg-air}
  ,                                       !- Zone Heating Sizing Factor
  ,                                       !- Zone Cooling Sizing Factor
  DesignDay,                              !- Cooling Design Air Flow Method
  ,                                       !- Cooling Design Air Flow Rate {m3/s}
  ,                                       !- Cooling Minimum Air Flow per Zone Floor Area {m3/s-m2}
  ,                                       !- Cooling Minimum Air Flow {m3/s}
  ,                                       !- Cooling Minimum Air Flow Fraction
  DesignDay,                              !- Heating Design Air Flow Method
  ,                                       !- Heating Design Air Flow Rate {m3/s}
  ,                                       !- Heating Maximum Air Flow per Zone Floor Area {m3/s-m2}
  ,                                       !- Heating Maximum Air Flow {m3/s}
  ,                                       !- Heating Maximum Air Flow Fraction
  No,                                     !- Account for Dedicated Outdoor Air System
  NeutralSupplyAir,                       !- Dedicated Outdoor Air System Control Strategy
  autosize,                               !- Dedicated Outdoor Air Low Setpoint Temperature for Design {C}
  autosize,                               !- Dedicated Outdoor Air High Setpoint Temperature for Design {C}
  Sensible Load Only No Latent Load,      !- Zone Load Sizing Method
  HumidityRatioDifference,                !- Zone Latent Cooling Design Supply Air Humidity Ratio Input Method
  ,                                       !- Zone Dehumidification Design Supply Air Humidity Ratio {kgWater/kgDryAir}
  0.005,                                  !- Zone Cooling Design Supply Air Humidity Ratio Difference {kgWater/kgDryAir}
  HumidityRatioDifference,                !- Zone Latent Heating Design Supply Air Humidity Ratio Input Method
  ,                                       !- Zone Humidification Design Supply Air Humidity Ratio {kgWater/kgDryAir}
  0.005,                                  !- Zone Humidification Design Supply Air Humidity Ratio Difference {kgWater/kgDryAir}
  ,                                       !- Zone Humidistat Dehumidification Set Point Schedule Name
  ,                                       !- Zone Humidistat Humidification Set Point Schedule Name
  ,                                       !- Design Zone Air Distribution Effectiveness in Cooling Mode
  ,                                       !- Design Zone Air Distribution Effectiveness in Heating Mode
  ,                                       !- Design Zone Secondary Recirculation Fraction {dimensionless}
  ,                                       !- Design Minimum Zone Ventilation Efficiency {dimensionless}
  Coincident;                             !- Sizing Option

OS:ZoneHVAC:EquipmentList,
  {ce2469d8-bf13-4979-8566-3abbeadcd4b7}, !- Handle
  Zone HVAC Equipment List 1,             !- Name
  {70b76436-41a1-400e-9715-04f56a5825e8}, !- Thermal Zone
  ,                                       !- Load Distribution Scheme
  {a17aa419-48a4-4632-b50a-6a89e9594be7}, !- Zone Equipment 1
  1,                                      !- Zone Equipment Cooling Sequence 1
  1,                                      !- Zone Equipment Heating or No-Load Sequence 1
  {4e268872-2265-4753-b41c-b6a462631f66}, !- Zone Equipment Sequential Cooling Fraction Schedule Name 1
  {42f68ae6-1970-47f2-a73a-0a95cbc77a89}; !- Zone Equipment Sequential Heating Fraction Schedule Name 1

OS:AdditionalProperties,
  {a33c1231-6501-4159-a9df-4848288fd126}, !- Handle
  {70b76436-41a1-400e-9715-04f56a5825e8}, !- Object Name
  ObjectType,                             !- Feature Name 1
  String,                                 !- Feature Data Type 1
  conditioned space;                      !- Feature Value 1

OS:Space,
  {b0e66e7d-561f-4f9a-99bd-a88c91be254a}, !- Handle
  conditioned space 1,                    !- Name
  ,                                       !- Space Type Name
  ,                                       !- Default Construction Set Name
  ,                                       !- Default Schedule Set Name
  ,                                       !- Direction of Relative North {deg}
  ,                                       !- X Origin {m}
  ,                                       !- Y Origin {m}
  ,                                       !- Z Origin {m}
  ,                                       !- Building Story Name
  {70b76436-41a1-400e-9715-04f56a5825e8}, !- Thermal Zone Name
  ,                                       !- Part of Total Floor Area
  ,                                       !- Design Specification Outdoor Air Object Name
  ,                                       !- Building Unit Name
  346.03186535424;                        !- Volume {m3}

OS:Schedule:Ruleset,
  {f4918d50-ab1b-4381-9bdb-5cf523b90444}, !- Handle
  heating setpoint,                       !- Name
  {657f98f6-4717-413a-8653-d97e93fb0d97}, !- Schedule Type Limits Name
  {791507d5-0c85-442d-9065-e8bb07b07af5}; !- Default Day Schedule Name

OS:Schedule:Day,
  {791507d5-0c85-442d-9065-e8bb07b07af5}, !- Handle
  heating setpoint default day,           !- Name
  {657f98f6-4717-413a-8653-d97e93fb0d97}, !- Schedule Type Limits Name
  ,                                       !- Interpolate to Timestep
  24,                                     !- Hour 1
  0,                                      !- Minute 1
  0;                                      !- Value Until Time 1

OS:Schedule:Rule,
  {bc4410b2-fd4e-4226-a4ff-5d7833afb526}, !- Handle
  heating setpoint allday rule,           !- Name
  {f4918d50-ab1b-4381-9bdb-5cf523b90444}, !- Schedule Ruleset Name
  0,                                      !- Rule Order
  {b1119c4e-729f-4dc3-a4ef-117da38b2e22}, !- Day Schedule Name
  Yes,                                    !- Apply Sunday
  Yes,                                    !- Apply Monday
  Yes,                                    !- Apply Tuesday
  Yes,                                    !- Apply Wednesday
  Yes,                                    !- Apply Thursday
  Yes,                                    !- Apply Friday
  Yes,                                    !- Apply Saturday
  DateRange,                              !- Date Specification Type
  1,                                      !- Start Month
  1,                                      !- Start Day
  12,                                     !- End Month
  31;                                     !- End Day

OS:Schedule:Day,
  {b1119c4e-729f-4dc3-a4ef-117da38b2e22}, !- Handle
  heating setpoint day,                   !- Name
  {657f98f6-4717-413a-8653-d97e93fb0d97}, !- Schedule Type Limits Name
  ,                                       !- Interpolate to Timestep
  24,                                     !- Hour 1
  0,                                      !- Minute 1
  20;                                     !- Value Until Time 1

OS:Schedule:Ruleset,
  {7f4bd678-3d03-4700-bb5e-a6ac0dfc34f0}, !- Handle
  cooling setpoint,                       !- Name
  {657f98f6-4717-413a-8653-d97e93fb0d97}, !- Schedule Type Limits Name
  {67e0fb4a-ebe6-458d-96ae-0cc62710a96b}; !- Default Day Schedule Name

OS:Schedule:Day,
  {67e0fb4a-ebe6-458d-96ae-0cc62710a96b}, !- Handle
  cooling setpoint default day,           !- Name
  {657f98f6-4717-413a-8653-d97e93fb0d97}, !- Schedule Type Limits Name
  ,                                       !- Interpolate to Timestep
  24,                                     !- Hour 1
  0,                                      !- Minute 1
  0;                                      !- Value Until Time 1

OS:Schedule:Rule,
  {15ca276c-713a-4f31-b64c-296988309067}, !- Handle
  cooling setpoint allday rule,           !- Name
  {7f4bd678-3d03-4700-bb5e-a6ac0dfc34f0}, !- Schedule Ruleset Name
  0,                                      !- Rule Order
  {dc6ad76b-43e8-4992-b1a6-cc3946c52900}, !- Day Schedule Name
  Yes,                                    !- Apply Sunday
  Yes,                                    !- Apply Monday
  Yes,                                    !- Apply Tuesday
  Yes,                                    !- Apply Wednesday
  Yes,                                    !- Apply Thursday
  Yes,                                    !- Apply Friday
  Yes,                                    !- Apply Saturday
  DateRange,                              !- Date Specification Type
  1,                                      !- Start Month
  1,                                      !- Start Day
  12,                                     !- End Month
  31;                                     !- End Day

OS:Schedule:Day,
  {dc6ad76b-43e8-4992-b1a6-cc3946c52900}, !- Handle
  cooling setpoint day,                   !- Name
  {657f98f6-4717-413a-8653-d97e93fb0d97}, !- Schedule Type Limits Name
  ,                                       !- Interpolate to Timestep
  24,                                     !- Hour 1
  0,                                      !- Minute 1
  25.5555555555556;                       !- Value Until Time 1

OS:ThermostatSetpoint:DualSetpoint,
  {d2bbbf2a-e301-4589-9883-b246944c16e5}, !- Handle
  conditioned space temperature setpoint, !- Name
  {f4918d50-ab1b-4381-9bdb-5cf523b90444}, !- Heating Setpoint Temperature Schedule Name
  {7f4bd678-3d03-4700-bb5e-a6ac0dfc34f0}, !- Cooling Setpoint Temperature Schedule Name
  0;                                      !- Temperature Difference Between Cutout And Setpoint {deltaC}

OS:ScheduleTypeLimits,
  {657f98f6-4717-413a-8653-d97e93fb0d97}, !- Handle
  Temperature,                            !- Name
  ,                                       !- Lower Limit Value
  ,                                       !- Upper Limit Value
  Continuous,                             !- Numeric Type
  Temperature;                            !- Unit Type

OS:Surface,
  {8323f6b2-c043-4d22-b520-51550ae1e52e}, !- Handle
  Roof1,                                  !- Name
  RoofCeiling,                            !- Surface Type
  {0f92ca8b-11d3-4254-8481-c9abd372240b}, !- Construction Name
  {b656c3a8-2aea-47de-86de-968361c59ce1}, !- Space Name
  Outdoors,                               !- Outside Boundary Condition
  ,                                       !- Outside Boundary Condition Object
  SunExposed,                             !- Sun Exposure
  WindExposed,                            !- Wind Exposure
  ,                                       !- View Factor to Ground
  ,                                       !- Number of Vertices
  -20.3643750774516, 29.0994858774516, 2.4384, !- X,Y,Z Vertex 1 {m}
  -20.3643750774516, 22.5947368017685, 5.69077453784155, !- X,Y,Z Vertex 2 {m}
  -13.0918445225484, 22.5947368017685, 5.69077453784155, !- X,Y,Z Vertex 3 {m}
  -13.0918445225484, 29.0994858774516, 2.4384; !- X,Y,Z Vertex 4 {m}

OS:AdditionalProperties,
  {b02206fd-6da9-4701-aa15-990e0d2d6ac6}, !- Handle
  {8323f6b2-c043-4d22-b520-51550ae1e52e}, !- Object Name
  Length,                                 !- Feature Name 1
  Double,                                 !- Feature Data Type 1
  23.860008382228202,                     !- Feature Value 1
  Width,                                  !- Feature Name 2
  Double,                                 !- Feature Data Type 2
  23.860008382228198,                     !- Feature Value 2
  Azimuth,                                !- Feature Name 3
  Integer,                                !- Feature Data Type 3
  0,                                      !- Feature Value 3
  Tilt,                                   !- Feature Name 4
  Double,                                 !- Feature Data Type 4
  0.5,                                    !- Feature Value 4
  SurfaceType,                            !- Feature Name 5
  String,                                 !- Feature Data Type 5
  Roof;                                   !- Feature Value 5

OS:ThermalZone,
  {f8abf0ea-c50b-4ffe-99d0-0a13b3e3d52f}, !- Handle
  attic - vented,                         !- Name
  1,                                      !- Multiplier
  ,                                       !- Ceiling Height {m}
  68.5839116251789,                       !- Volume {m3}
  ,                                       !- Floor Area {m2}
  ,                                       !- Zone Inside Convection Algorithm
  ,                                       !- Zone Outside Convection Algorithm
  ,                                       !- Zone Conditioning Equipment List Name
  {cd00acca-57d5-475a-9054-ad1b88c05ab5}, !- Zone Air Inlet Port List
  {ced898cf-1a4e-4b7c-92c8-3b3f4c00104f}, !- Zone Air Exhaust Port List
  {ea428afc-3eac-40f2-a243-8f1378a37dc2}, !- Zone Air Node Name
  {5bcb9ca6-0683-4a4e-aecc-9c413fdac2b3}, !- Zone Return Air Port List
  ,                                       !- Primary Daylighting Control Name
  ,                                       !- Fraction of Zone Controlled by Primary Daylighting Control
  ,                                       !- Secondary Daylighting Control Name
  ,                                       !- Fraction of Zone Controlled by Secondary Daylighting Control
  ,                                       !- Illuminance Map Name
  ,                                       !- Group Rendering Name
  ,                                       !- Thermostat Name
  No;                                     !- Use Ideal Air Loads

OS:Node,
  {83d2a964-87db-4e29-9dcb-30ba66addab2}, !- Handle
  Node 2,                                 !- Name
  {ea428afc-3eac-40f2-a243-8f1378a37dc2}, !- Inlet Port
  ;                                       !- Outlet Port

OS:Connection,
  {ea428afc-3eac-40f2-a243-8f1378a37dc2}, !- Handle
  {f8abf0ea-c50b-4ffe-99d0-0a13b3e3d52f}, !- Source Object
  11,                                     !- Outlet Port
  {83d2a964-87db-4e29-9dcb-30ba66addab2}, !- Target Object
  2;                                      !- Inlet Port

OS:PortList,
  {cd00acca-57d5-475a-9054-ad1b88c05ab5}, !- Handle
  {f8abf0ea-c50b-4ffe-99d0-0a13b3e3d52f}; !- HVAC Component

OS:PortList,
  {ced898cf-1a4e-4b7c-92c8-3b3f4c00104f}, !- Handle
  {f8abf0ea-c50b-4ffe-99d0-0a13b3e3d52f}; !- HVAC Component

OS:PortList,
  {5bcb9ca6-0683-4a4e-aecc-9c413fdac2b3}, !- Handle
  {f8abf0ea-c50b-4ffe-99d0-0a13b3e3d52f}; !- HVAC Component

OS:Sizing:Zone,
  {4f124377-7887-4751-a57b-e695bdebbcc5}, !- Handle
  {f8abf0ea-c50b-4ffe-99d0-0a13b3e3d52f}, !- Zone or ZoneList Name
  SupplyAirTemperature,                   !- Zone Cooling Design Supply Air Temperature Input Method
  14,                                     !- Zone Cooling Design Supply Air Temperature {C}
  11.11,                                  !- Zone Cooling Design Supply Air Temperature Difference {deltaC}
  SupplyAirTemperature,                   !- Zone Heating Design Supply Air Temperature Input Method
  40,                                     !- Zone Heating Design Supply Air Temperature {C}
  11.11,                                  !- Zone Heating Design Supply Air Temperature Difference {deltaC}
  0.0085,                                 !- Zone Cooling Design Supply Air Humidity Ratio {kg-H2O/kg-air}
  0.008,                                  !- Zone Heating Design Supply Air Humidity Ratio {kg-H2O/kg-air}
  ,                                       !- Zone Heating Sizing Factor
  ,                                       !- Zone Cooling Sizing Factor
  DesignDay,                              !- Cooling Design Air Flow Method
  ,                                       !- Cooling Design Air Flow Rate {m3/s}
  ,                                       !- Cooling Minimum Air Flow per Zone Floor Area {m3/s-m2}
  ,                                       !- Cooling Minimum Air Flow {m3/s}
  ,                                       !- Cooling Minimum Air Flow Fraction
  DesignDay,                              !- Heating Design Air Flow Method
  ,                                       !- Heating Design Air Flow Rate {m3/s}
  ,                                       !- Heating Maximum Air Flow per Zone Floor Area {m3/s-m2}
  ,                                       !- Heating Maximum Air Flow {m3/s}
  ,                                       !- Heating Maximum Air Flow Fraction
  No,                                     !- Account for Dedicated Outdoor Air System
  NeutralSupplyAir,                       !- Dedicated Outdoor Air System Control Strategy
  autosize,                               !- Dedicated Outdoor Air Low Setpoint Temperature for Design {C}
  autosize,                               !- Dedicated Outdoor Air High Setpoint Temperature for Design {C}
  Sensible Load Only No Latent Load,      !- Zone Load Sizing Method
  HumidityRatioDifference,                !- Zone Latent Cooling Design Supply Air Humidity Ratio Input Method
  ,                                       !- Zone Dehumidification Design Supply Air Humidity Ratio {kgWater/kgDryAir}
  0.005,                                  !- Zone Cooling Design Supply Air Humidity Ratio Difference {kgWater/kgDryAir}
  HumidityRatioDifference,                !- Zone Latent Heating Design Supply Air Humidity Ratio Input Method
  ,                                       !- Zone Humidification Design Supply Air Humidity Ratio {kgWater/kgDryAir}
  0.005,                                  !- Zone Humidification Design Supply Air Humidity Ratio Difference {kgWater/kgDryAir}
  ,                                       !- Zone Humidistat Dehumidification Set Point Schedule Name
  ,                                       !- Zone Humidistat Humidification Set Point Schedule Name
  ,                                       !- Design Zone Air Distribution Effectiveness in Cooling Mode
  ,                                       !- Design Zone Air Distribution Effectiveness in Heating Mode
  ,                                       !- Design Zone Secondary Recirculation Fraction {dimensionless}
  ,                                       !- Design Minimum Zone Ventilation Efficiency {dimensionless}
  Coincident;                             !- Sizing Option

OS:ZoneHVAC:EquipmentList,
  {1e5fcb83-2c4d-4445-ad73-8f8a9513de90}, !- Handle
  Zone HVAC Equipment List 2,             !- Name
  {f8abf0ea-c50b-4ffe-99d0-0a13b3e3d52f}; !- Thermal Zone

OS:AdditionalProperties,
  {3855261f-6518-408e-8956-10be12003d18}, !- Handle
  {f8abf0ea-c50b-4ffe-99d0-0a13b3e3d52f}, !- Object Name
  ObjectType,                             !- Feature Name 1
  String,                                 !- Feature Data Type 1
  attic - vented;                         !- Feature Value 1

OS:Space,
  {b656c3a8-2aea-47de-86de-968361c59ce1}, !- Handle
  attic - vented 1,                       !- Name
  ,                                       !- Space Type Name
  ,                                       !- Default Construction Set Name
  ,                                       !- Default Schedule Set Name
  ,                                       !- Direction of Relative North {deg}
  ,                                       !- X Origin {m}
  ,                                       !- Y Origin {m}
  ,                                       !- Z Origin {m}
  ,                                       !- Building Story Name
  {f8abf0ea-c50b-4ffe-99d0-0a13b3e3d52f}, !- Thermal Zone Name
  ,                                       !- Part of Total Floor Area
  ,                                       !- Design Specification Outdoor Air Object Name
  ,                                       !- Building Unit Name
  68.5839116251789;                       !- Volume {m3}

OS:Material,
  {b6960d81-d901-4d3c-9a18-9850d05a45ca}, !- Handle
  asphalt or fiberglass shingles,         !- Name
  Rough,                                  !- Roughness
  0.00635,                                !- Thickness {m}
  0.162714,                               !- Conductivity {W/m-K}
  1121.4,                                 !- Density {kg/m3}
  1465.45,                                !- Specific Heat {J/kg-K}
  0.9,                                    !- Thermal Absorptance
  0.85,                                   !- Solar Absorptance