
OS:Version,
  {efaba5bd-3425-45a7-8992-663d1d6f6b9b}, !- Handle
  3.10.0;                                 !- Version Identifier

OS:SimulationControl,
  {111bda25-3447-45a2-9237-28317b55884f}, !- Handle
  ,                                       !- Do Zone Sizing Calculation
  ,                                       !- Do System Sizing Calculation
  ,                                       !- Do Plant Sizing Calculation
  No;                                     !- Run Simulation for Sizing Periods

OS:Timestep,
  {89c2b65d-1d86-47a4-87bc-3253bad2f698}, !- Handle
  1;                                      !- Number of Timesteps per Hour

OS:ShadowCalculation,
  {f96673f3-30d8-44ee-988a-b132a9fe2072}, !- Handle
  PolygonClipping,                        !- Shading Calculation Method
  ,                                       !- Shading Calculation Update Frequency Method
  20,                                     !- Shading Calculation Update Frequency
  200,                                    !- Maximum Figures in Shadow Overlap Calculations
  ,                                       !- Polygon Clipping Algorithm
  512,                                    !- Pixel Counting Resolution
  ,                                       !- Sky Diffuse Modeling Algorithm
  No,                                     !- Output External Shading Calculation Results
  No,                                     !- Disable Self-Shading Within Shading Zone Groups
  No;                                     !- Disable Self-Shading From Shading Zone Groups to Other Zones

OS:SurfaceConvectionAlgorithm:Outside,
  {193a22b2-7e44-4bf9-a97e-53cb8247c536}, !- Handle
  DOE-2;                                  !- Algorithm

OS:SurfaceConvectionAlgorithm:Inside,
  {fcc54c25-a7d7-4d84-ba34-0a66790279c8}, !- Handle
  TARP;                                   !- Algorithm

OS:ZoneCapacitanceMultiplier:ResearchSpecial,
  {0536a130-3ab6-4269-a976-ecb1c394d558}, !- Handle
  7,                                      !- Temperature Capacity Multiplier
  15,                                     !- Humidity Capacity Multiplier
  ;                                       !- Carbon Dioxide Capacity Multiplier

OS:ConvergenceLimits,
  {d94c28dd-d2c8-4ac5-a98c-c4029a1b5f68}, !- Handle
  0;                                      !- Minimum System Timestep {minutes}

OS:RunPeriod,
  {f54d48a8-9978-4024-b5b2-becda0e7350f}, !- Handle
  Run Period 1,                           !- Name
  1,                                      !- Begin Month
  1,                                      !- Begin Day of Month
  12,                                     !- End Month
  31,                                     !- End Day of Month
  ,                                       !- Use Weather File Holidays and Special Days
  ,                                       !- Use Weather File Daylight Saving Period
  ,                                       !- Apply Weekend Holiday Rule
  ,                                       !- Use Weather File Rain Indicators
  ,                                       !- Use Weather File Snow Indicators
  ;                                       !- Number of Times Runperiod to be Repeated

OS:PerformancePrecisionTradeoffs,
  {eecbcd2e-3b6b-4347-8c9a-92cf065e67d9}, !- Handle
  ,                                       !- Use Coil Direct Solutions
  CarrollMRT;                             !- Zone Radiant Exchange Algorithm

OS:WeatherFile,
  {62a6fe7f-b632-4422-a1d9-e5af966fa96d}, !- Handle
  Buffalo Niagara Intl Ap,                !- City
  NY,                                     !- State Province Region
  USA,                                    !- Country
  TMY3,                                   !- Data Source
  725280,                                 !- WMO Number
  42.93,                                  !- Latitude {deg}
  -78.73,                                 !- Longitude {deg}
  -5,                                     !- Time Zone {hr}
  215,                                    !- Elevation {m}
  /Users/nmoore/github/urbanopt-example-geojson-project/example_project/weather/USA_NY_Buffalo-Greater.Buffalo.Intl.AP.725280_TMY3.epw, !- Url
  6B50E0FF,                               !- Checksum
  ,                                       !- Start Date Actual Year
  Sunday;                                 !- Start Day of Week

OS:YearDescription,
  {d9c1e80b-4a99-434c-80e5-f567371b36aa}, !- Handle
  2007,                                   !- Calendar Year
  ,                                       !- Day of Week for Start Day
  ;                                       !- Is Leap Year

OS:Site,
  {ed8b2021-ea01-40b3-952d-d021208b549c}, !- Handle
  Buffalo Niagara Intl Ap_NY,             !- Name
  42.93,                                  !- Latitude {deg}
  -78.73,                                 !- Longitude {deg}
  -5,                                     !- Time Zone {hr}
  215,                                    !- Elevation {m}
  Suburbs,                                !- Terrain
  Yes;                                    !- Keep Site Location Information

OS:RunPeriodControl:DaylightSavingTime,
  {b8ff155a-d687-48b3-ad27-391224acc37c}, !- Handle
  Mar 12,                                 !- Start Date
  Nov 5;                                  !- End Date

OS:Site:GroundTemperature:Shallow,
  {75a93bcd-3a87-4739-ba4a-95c7f75115f2}, !- Handle
  4.30207395723828,                       !- January Surface Ground Temperature {C}
  2.29327249652502,                       !- February Surface Ground Temperature {C}
  2.13240047156047,                       !- March Surface Ground Temperature {C}
  3.08567940719286,                       !- April Surface Ground Temperature {C}
  6.91256312497526,                       !- May Surface Ground Temperature {C}
  10.7216195949507,                       !- June Surface Ground Temperature {C}
  14.0238679822574,                       !- July Surface Ground Temperature {C}
  16.1157611184724,                       !- August Surface Ground Temperature {C}
  16.2934789303462,                       !- September Surface Ground Temperature {C}
  14.5920754632847,                       !- October Surface Ground Temperature {C}
  11.374036348653,                        !- November Surface Ground Temperature {C}
  7.68182621661674;                       !- December Surface Ground Temperature {C}

OS:ThermalZone,
  {fa686b21-bb51-436f-ab50-3178b9f4c7f2}, !- Handle
  conditioned space,                      !- Name
  1,                                      !- Multiplier
  ,                                       !- Ceiling Height {m}
  346.03186535424,                        !- Volume {m3}
  ,                                       !- Floor Area {m2}
  ,                                       !- Zone Inside Convection Algorithm
  ,                                       !- Zone Outside Convection Algorithm
  ,                                       !- Zone Conditioning Equipment List Name
  {60fef25e-5e57-481b-8731-730e8169060e}, !- Zone Air Inlet Port List
  {a85696e7-654d-44cd-a2d4-47f0ec2b58d6}, !- Zone Air Exhaust Port List
  {4798f716-8e64-497a-9c6a-7dd7965ffe2b}, !- Zone Air Node Name
  {049a3e8c-f954-46d2-937b-b70bc4e3f8c6}, !- Zone Return Air Port List
  ,                                       !- Primary Daylighting Control Name
  ,                                       !- Fraction of Zone Controlled by Primary Daylighting Control
  ,                                       !- Secondary Daylighting Control Name
  ,                                       !- Fraction of Zone Controlled by Secondary Daylighting Control
  ,                                       !- Illuminance Map Name
  ,                                       !- Group Rendering Name
  {7ea61ceb-aed1-49e6-a426-7f2ff0e5b33b}, !- Thermostat Name
  No;                                     !- Use Ideal Air Loads

OS:Node,
  {8b04c9f7-eebf-4722-9ff2-3213f1c525fa}, !- Handle
  Node 1,                                 !- Name
  {4798f716-8e64-497a-9c6a-7dd7965ffe2b}, !- Inlet Port
  ;                                       !- Outlet Port

OS:Connection,
  {4798f716-8e64-497a-9c6a-7dd7965ffe2b}, !- Handle
  {fa686b21-bb51-436f-ab50-3178b9f4c7f2}, !- Source Object
  11,                                     !- Outlet Port
  {8b04c9f7-eebf-4722-9ff2-3213f1c525fa}, !- Target Object
  2;                                      !- Inlet Port

OS:PortList,
  {60fef25e-5e57-481b-8731-730e8169060e}, !- Handle
  {fa686b21-bb51-436f-ab50-3178b9f4c7f2}, !- HVAC Component
  {3fe36c04-4ecd-4c87-a758-917c8e84b273}; !- Port 1

OS:PortList,
  {a85696e7-654d-44cd-a2d4-47f0ec2b58d6}, !- Handle
  {fa686b21-bb51-436f-ab50-3178b9f4c7f2}; !- HVAC Component

OS:PortList,
  {049a3e8c-f954-46d2-937b-b70bc4e3f8c6}, !- Handle
  {fa686b21-bb51-436f-ab50-3178b9f4c7f2}, !- HVAC Component
  {0f247a30-5581-4e6d-b5e2-5f363341c2f9}; !- Port 1

OS:Sizing:Zone,
  {e962d724-57f1-4108-b8de-a537333dd42b}, !- Handle
  {fa686b21-bb51-436f-ab50-3178b9f4c7f2}, !- Zone or ZoneList Name
  SupplyAirTemperature,                   !- Zone Cooling Design Supply Air Temperature Input Method
  14,                                     !- Zone Cooling Design Supply Air Temperature {C}
  11.11,                                  !- Zone Cooling Design Supply Air Temperature Difference {deltaC}
  SupplyAirTemperature,                   !- Zone Heating Design Supply Air Temperature Input Method
  40,                                     !- Zone Heating Design Supply Air Temperature {C}
  11.11,                                  !- Zone Heating Design Supply Air Temperature Difference {deltaC}
  0.0085,                                 !- Zone Cooling Design Supply Air Humidity Ratio {kg-H2O/kg-air}
  0.008,                                  !- Zone Heating Design Supply Air Humidity Ratio {kg-H2O/kg-air}
  ,                                       !- Zone Heating Sizing Factor
  ,                                       !- Zone Cooling Sizing Factor
  DesignDay,                              !- Cooling Design Air Flow Method
  ,                                       !- Cooling Design Air Flow Rate {m3/s}
  ,                                       !- Cooling Minimum Air Flow per Zone Floor Area {m3/s-m2}
  ,                                       !- Cooling Minimum Air Flow {m3/s}
  ,                                       !- Cooling Minimum Air Flow Fraction
  DesignDay,                              !- Heating Design Air Flow Method
  ,                                       !- Heating Design Air Flow Rate {m3/s}
  ,                                       !- Heating Maximum Air Flow per Zone Floor Area {m3/s-m2}
  ,                                       !- Heating Maximum Air Flow {m3/s}
  ,                                       !- Heating Maximum Air Flow Fraction
  No,                                     !- Account for Dedicated Outdoor Air System
  NeutralSupplyAir,                       !- Dedicated Outdoor Air System Control Strategy
  autosize,                               !- Dedicated Outdoor Air Low Setpoint Temperature for Design {C}
  autosize,                               !- Dedicated Outdoor Air High Setpoint Temperature for Design {C}
  Sensible Load Only No Latent Load,      !- Zone Load Sizing Method
  HumidityRatioDifference,                !- Zone Latent Cooling Design Supply Air Humidity Ratio Input Method
  ,                                       !- Zone Dehumidification Design Supply Air Humidity Ratio {kgWater/kgDryAir}
  0.005,                                  !- Zone Cooling Design Supply Air Humidity Ratio Difference {kgWater/kgDryAir}
  HumidityRatioDifference,                !- Zone Latent Heating Design Supply Air Humidity Ratio Input Method
  ,                                       !- Zone Humidification Design Supply Air Humidity Ratio {kgWater/kgDryAir}
  0.005,                                  !- Zone Humidification Design Supply Air Humidity Ratio Difference {kgWater/kgDryAir}
  ,                                       !- Zone Humidistat Dehumidification Set Point Schedule Name
  ,                                       !- Zone Humidistat Humidification Set Point Schedule Name
  ,                                       !- Design Zone Air Distribution Effectiveness in Cooling Mode
  ,                                       !- Design Zone Air Distribution Effectiveness in Heating Mode
  ,                                       !- Design Zone Secondary Recirculation Fraction {dimensionless}
  ,                                       !- Design Minimum Zone Ventilation Efficiency {dimensionless}
  Coincident;                             !- Sizing Option

OS:ZoneHVAC:EquipmentList,
  {8bb166f8-9860-4f0a-9075-c9aebad73cac}, !- Handle
  Zone HVAC Equipment List 1,             !- Name
  {fa686b21-bb51-436f-ab50-3178b9f4c7f2}, !- Thermal Zone
  ,                                       !- Load Distribution Scheme
  {2c9617ac-fc2b-4512-9379-8e432271997c}, !- Zone Equipment 1
  1,                                      !- Zone Equipment Cooling Sequence 1
  1,                                      !- Zone Equipment Heating or No-Load Sequence 1
  {cb334e2f-156b-4775-bd6f-889ec917aac2}, !- Zone Equipment Sequential Cooling Fraction Schedule Name 1
  {ad74c14c-ff21-40bc-b869-770eee1600b2}; !- Zone Equipment Sequential Heating Fraction Schedule Name 1

OS:AdditionalProperties,
  {1694065f-019f-4d6d-8107-9ba786859d94}, !- Handle
  {fa686b21-bb51-436f-ab50-3178b9f4c7f2}, !- Object Name
  ObjectType,                             !- Feature Name 1
  String,                                 !- Feature Data Type 1
  conditioned space;                      !- Feature Value 1

OS:Space,
  {97e6016c-3610-4500-b0dd-10dfc8afbb48}, !- Handle
  conditioned space 1,                    !- Name
  ,                                       !- Space Type Name
  ,                                       !- Default Construction Set Name
  ,                                       !- Default Schedule Set Name
  ,                                       !- Direction of Relative North {deg}
  ,                                       !- X Origin {m}
  ,                                       !- Y Origin {m}
  ,                                       !- Z Origin {m}
  ,                                       !- Building Story Name
  {fa686b21-bb51-436f-ab50-3178b9f4c7f2}, !- Thermal Zone Name
  ,                                       !- Part of Total Floor Area
  ,                                       !- Design Specification Outdoor Air Object Name
  ,                                       !- Building Unit Name
  346.03186535424;                        !- Volume {m3}

OS:Schedule:Ruleset,
  {8e86a484-4a26-46d1-b4e3-59d44fbe2eb8}, !- Handle
  heating setpoint,                       !- Name
  {cf2cc1b8-a953-4b17-8bbc-38f6d181127b}, !- Schedule Type Limits Name
  {a1430d7d-0731-4375-9a3e-68766b0d1288}; !- Default Day Schedule Name

OS:Schedule:Day,
  {a1430d7d-0731-4375-9a3e-68766b0d1288}, !- Handle
  heating setpoint default day,           !- Name
  {cf2cc1b8-a953-4b17-8bbc-38f6d181127b}, !- Schedule Type Limits Name
  ,                                       !- Interpolate to Timestep
  24,                                     !- Hour 1
  0,                                      !- Minute 1
  0;                                      !- Value Until Time 1

OS:Schedule:Rule,
  {c7acfc11-4983-4cb7-aa72-e2dd2013fb67}, !- Handle
  heating setpoint allday rule,           !- Name
  {8e86a484-4a26-46d1-b4e3-59d44fbe2eb8}, !- Schedule Ruleset Name
  0,                                      !- Rule Order
  {a1485239-6bb1-4a59-9714-4e6492b58078}, !- Day Schedule Name
  Yes,                                    !- Apply Sunday
  Yes,                                    !- Apply Monday
  Yes,                                    !- Apply Tuesday
  Yes,                                    !- Apply Wednesday
  Yes,                                    !- Apply Thursday
  Yes,                                    !- Apply Friday
  Yes,                                    !- Apply Saturday
  DateRange,                              !- Date Specification Type
  1,                                      !- Start Month
  1,                                      !- Start Day
  12,                                     !- End Month
  31;                                     !- End Day

OS:Schedule:Day,
  {a1485239-6bb1-4a59-9714-4e6492b58078}, !- Handle
  heating setpoint day,                   !- Name
  {cf2cc1b8-a953-4b17-8bbc-38f6d181127b}, !- Schedule Type Limits Name
  ,                                       !- Interpolate to Timestep
  24,                                     !- Hour 1
  0,                                      !- Minute 1
  20;                                     !- Value Until Time 1

OS:Schedule:Ruleset,
  {f9d8bd94-9aee-4be1-b593-b3f5226d6fae}, !- Handle
  cooling setpoint,                       !- Name
  {cf2cc1b8-a953-4b17-8bbc-38f6d181127b}, !- Schedule Type Limits Name
  {602dd5cf-2c85-4a3f-8547-5fc81991f4b8}; !- Default Day Schedule Name

OS:Schedule:Day,
  {602dd5cf-2c85-4a3f-8547-5fc81991f4b8}, !- Handle
  cooling setpoint default day,           !- Name
  {cf2cc1b8-a953-4b17-8bbc-38f6d181127b}, !- Schedule Type Limits Name
  ,                                       !- Interpolate to Timestep
  24,                                     !- Hour 1
  0,                                      !- Minute 1
  0;                                      !- Value Until Time 1

OS:Schedule:Rule,
  {4f63e87f-c069-436c-950d-5d4d4bc56e69}, !- Handle
  cooling setpoint allday rule,           !- Name
  {f9d8bd94-9aee-4be1-b593-b3f5226d6fae}, !- Schedule Ruleset Name
  0,                                      !- Rule Order
  {fbcb4a3f-5613-48aa-b30e-4bfa7fd289bf}, !- Day Schedule Name
  Yes,                                    !- Apply Sunday
  Yes,                                    !- Apply Monday
  Yes,                                    !- Apply Tuesday
  Yes,                                    !- Apply Wednesday
  Yes,                                    !- Apply Thursday
  Yes,                                    !- Apply Friday
  Yes,                                    !- Apply Saturday
  DateRange,                              !- Date Specification Type
  1,                                      !- Start Month
  1,                                      !- Start Day
  12,                                     !- End Month
  31;                                     !- End Day

OS:Schedule:Day,
  {fbcb4a3f-5613-48aa-b30e-4bfa7fd289bf}, !- Handle
  cooling setpoint day,                   !- Name
  {cf2cc1b8-a953-4b17-8bbc-38f6d181127b}, !- Schedule Type Limits Name
  ,                                       !- Interpolate to Timestep
  24,                                     !- Hour 1
  0,                                      !- Minute 1
  25.5555555555556;                       !- Value Until Time 1

OS:ThermostatSetpoint:DualSetpoint,
  {7ea61ceb-aed1-49e6-a426-7f2ff0e5b33b}, !- Handle
  conditioned space temperature setpoint, !- Name
  {8e86a484-4a26-46d1-b4e3-59d44fbe2eb8}, !- Heating Setpoint Temperature Schedule Name
  {f9d8bd94-9aee-4be1-b593-b3f5226d6fae}, !- Cooling Setpoint Temperature Schedule Name
  0;                                      !- Temperature Difference Between Cutout And Setpoint {deltaC}

OS:ScheduleTypeLimits,
  {cf2cc1b8-a953-4b17-8bbc-38f6d181127b}, !- Handle
  Temperature,                            !- Name
  ,                                       !- Lower Limit Value
  ,                                       !- Upper Limit Value
  Continuous,                             !- Numeric Type
  Temperature;                            !- Unit Type

OS:Surface,
  {9d667faf-3469-4dad-b4f2-d2e2366ad042}, !- Handle
  Roof1,                                  !- Name
  RoofCeiling,                            !- Surface Type
  {8aa7c835-ed91-4106-a0b5-a89fde9d848b}, !- Construction Name
  {b87760f2-8219-463b-8395-c827e1330292}, !- Space Name
  Outdoors,                               !- Outside Boundary Condition
  ,                                       !- Outside Boundary Condition Object
  SunExposed,                             !- Sun Exposure
  WindExposed,                            !- Wind Exposure
  ,                                       !- View Factor to Ground
  ,                                       !- Number of Vertices
  -20.3643750774516, 29.0994858774516, 2.4384, !- X,Y,Z Vertex 1 {m}
  -20.3643750774516, 22.5947368017685, 5.69077453784155, !- X,Y,Z Vertex 2 {m}
  -13.0918445225484, 22.5947368017685, 5.69077453784155, !- X,Y,Z Vertex 3 {m}
  -13.0918445225484, 29.0994858774516, 2.4384; !- X,Y,Z Vertex 4 {m}

OS:AdditionalProperties,
  {9ec72a24-8e0b-487a-83e6-a2d17425fc13}, !- Handle
  {9d667faf-3469-4dad-b4f2-d2e2366ad042}, !- Object Name
  Length,                                 !- Feature Name 1
  Double,                                 !- Feature Data Type 1
  23.860008382228202,                     !- Feature Value 1
  Width,                                  !- Feature Name 2
  Double,                                 !- Feature Data Type 2
  23.860008382228198,                     !- Feature Value 2
  Azimuth,                                !- Feature Name 3
  Integer,                                !- Feature Data Type 3
  0,                                      !- Feature Value 3
  Tilt,                                   !- Feature Name 4
  Double,                                 !- Feature Data Type 4
  0.5,                                    !- Feature Value 4
  SurfaceType,                            !- Feature Name 5
  String,                                 !- Feature Data Type 5
  Roof;                                   !- Feature Value 5

OS:ThermalZone,
  {28ce9a9a-8d2d-4768-a3c0-b417e0d03360}, !- Handle
  attic - vented,                         !- Name
  1,                                      !- Multiplier
  ,                                       !- Ceiling Height {m}
  68.5934891814199,                       !- Volume {m3}
  ,                                       !- Floor Area {m2}
  ,                                       !- Zone Inside Convection Algorithm
  ,                                       !- Zone Outside Convection Algorithm
  ,                                       !- Zone Conditioning Equipment List Name
  {bdf69266-0911-4fb1-9d62-44dfb161732c}, !- Zone Air Inlet Port List
  {96dbbadc-d4f9-4330-835a-acd4c883b270}, !- Zone Air Exhaust Port List
  {e2c8ba37-7a72-4140-98c6-70e4ebdbbad5}, !- Zone Air Node Name
  {b7322bb6-0f78-4a1d-885f-90367020253c}, !- Zone Return Air Port List
  ,                                       !- Primary Daylighting Control Name
  ,                                       !- Fraction of Zone Controlled by Primary Daylighting Control
  ,                                       !- Secondary Daylighting Control Name
  ,                                       !- Fraction of Zone Controlled by Secondary Daylighting Control
  ,                                       !- Illuminance Map Name
  ,                                       !- Group Rendering Name
  ,                                       !- Thermostat Name
  No;                                     !- Use Ideal Air Loads

OS:Node,
  {15b34f7f-60e6-400f-b45f-f7615fd9a81a}, !- Handle
  Node 2,                                 !- Name
  {e2c8ba37-7a72-4140-98c6-70e4ebdbbad5}, !- Inlet Port
  ;                                       !- Outlet Port

OS:Connection,
  {e2c8ba37-7a72-4140-98c6-70e4ebdbbad5}, !- Handle
  {28ce9a9a-8d2d-4768-a3c0-b417e0d03360}, !- Source Object
  11,                                     !- Outlet Port
  {15b34f7f-60e6-400f-b45f-f7615fd9a81a}, !- Target Object
  2;                                      !- Inlet Port

OS:PortList,
  {bdf69266-0911-4fb1-9d62-44dfb161732c}, !- Handle
  {28ce9a9a-8d2d-4768-a3c0-b417e0d03360}; !- HVAC Component

OS:PortList,
  {96dbbadc-d4f9-4330-835a-acd4c883b270}, !- Handle
  {28ce9a9a-8d2d-4768-a3c0-b417e0d03360}; !- HVAC Component

OS:PortList,
  {b7322bb6-0f78-4a1d-885f-90367020253c}, !- Handle
  {28ce9a9a-8d2d-4768-a3c0-b417e0d03360}; !- HVAC Component

OS:Sizing:Zone,
  {05125afc-7d19-4261-b110-171853463892}, !- Handle
  {28ce9a9a-8d2d-4768-a3c0-b417e0d03360}, !- Zone or ZoneList Name
  SupplyAirTemperature,                   !- Zone Cooling Design Supply Air Temperature Input Method
  14,                                     !- Zone Cooling Design Supply Air Temperature {C}
  11.11,                                  !- Zone Cooling Design Supply Air Temperature Difference {deltaC}
  SupplyAirTemperature,                   !- Zone Heating Design Supply Air Temperature Input Method
  40,                                     !- Zone Heating Design Supply Air Temperature {C}
  11.11,                                  !- Zone Heating Design Supply Air Temperature Difference {deltaC}
  0.0085,                                 !- Zone Cooling Design Supply Air Humidity Ratio {kg-H2O/kg-air}
  0.008,                                  !- Zone Heating Design Supply Air Humidity Ratio {kg-H2O/kg-air}
  ,                                       !- Zone Heating Sizing Factor
  ,                                       !- Zone Cooling Sizing Factor
  DesignDay,                              !- Cooling Design Air Flow Method
  ,                                       !- Cooling Design Air Flow Rate {m3/s}
  ,                                       !- Cooling Minimum Air Flow per Zone Floor Area {m3/s-m2}
  ,                                       !- Cooling Minimum Air Flow {m3/s}
  ,                                       !- Cooling Minimum Air Flow Fraction
  DesignDay,                              !- Heating Design Air Flow Method
  ,                                       !- Heating Design Air Flow Rate {m3/s}
  ,                                       !- Heating Maximum Air Flow per Zone Floor Area {m3/s-m2}
  ,                                       !- Heating Maximum Air Flow {m3/s}
  ,                                       !- Heating Maximum Air Flow Fraction
  No,                                     !- Account for Dedicated Outdoor Air System
  NeutralSupplyAir,                       !- Dedicated Outdoor Air System Control Strategy
  autosize,                               !- Dedicated Outdoor Air Low Setpoint Temperature for Design {C}
  autosize,                               !- Dedicated Outdoor Air High Setpoint Temperature for Design {C}
  Sensible Load Only No Latent Load,      !- Zone Load Sizing Method
  HumidityRatioDifference,                !- Zone Latent Cooling Design Supply Air Humidity Ratio Input Method
  ,                                       !- Zone Dehumidification Design Supply Air Humidity Ratio {kgWater/kgDryAir}
  0.005,                                  !- Zone Cooling Design Supply Air Humidity Ratio Difference {kgWater/kgDryAir}
  HumidityRatioDifference,                !- Zone Latent Heating Design Supply Air Humidity Ratio Input Method
  ,                                       !- Zone Humidification Design Supply Air Humidity Ratio {kgWater/kgDryAir}
  0.005,                                  !- Zone Humidification Design Supply Air Humidity Ratio Difference {kgWater/kgDryAir}
  ,                                       !- Zone Humidistat Dehumidification Set Point Schedule Name
  ,                                       !- Zone Humidistat Humidification Set Point Schedule Name
  ,                                       !- Design Zone Air Distribution Effectiveness in Cooling Mode
  ,                                       !- Design Zone Air Distribution Effectiveness in Heating Mode
  ,                                       !- Design Zone Secondary Recirculation Fraction {dimensionless}
  ,                                       !- Design Minimum Zone Ventilation Efficiency {dimensionless}
  Coincident;                             !- Sizing Option

OS:ZoneHVAC:EquipmentList,
  {c7077c95-e2a3-4ac3-aff9-77d8a89ce252}, !- Handle
  Zone HVAC Equipment List 2,             !- Name
  {28ce9a9a-8d2d-4768-a3c0-b417e0d03360}; !- Thermal Zone

OS:AdditionalProperties,
  {323e2242-b7d7-4394-b591-c24919ae55e9}, !- Handle
  {28ce9a9a-8d2d-4768-a3c0-b417e0d03360}, !- Object Name
  ObjectType,                             !- Feature Name 1
  String,                                 !- Feature Data Type 1
  attic - vented;                         !- Feature Value 1

OS:Space,
  {b87760f2-8219-463b-8395-c827e1330292}, !- Handle
  attic - vented 1,                       !- Name
  ,                                       !- Space Type Name
  ,                                       !- Default Construction Set Name
  ,                                       !- Default Schedule Set Name
  ,                                       !- Direction of Relative North {deg}
  ,                                       !- X Origin {m}
  ,                                       !- Y Origin {m}
  ,                                       !- Z Origin {m}
  ,                                       !- Building Story Name
  {28ce9a9a-8d2d-4768-a3c0-b417e0d03360}, !- Thermal Zone Name
  ,                                       !- Part of Total Floor Area
  ,                                       !- Design Specification Outdoor Air Object Name
  ,                                       !- Building Unit Name
  68.5934891814199;                       !- Volume {m3}

OS:Material,
  {b45b79a8-b07a-48f0-9073-30e75afe7930}, !- Handle
  asphalt or fiberglass shingles,         !- Name
  Rough,                                  !- Roughness
  0.00635,                                !- Thickness {m}
  0.162714,                               !- Conductivity {W/m-K}
  1121.4,                                 !- Density {kg/m3}
  1465.45,                                !- Specific Heat {J/kg-K}
  0.9,                                    !- Thermal Absorptance
  0.85,                                   !- Solar Absorptance