
OS:Version,
  {86ca436c-531d-43e7-9078-6e4a7e8018a4}, !- Handle
  3.9.0;                                  !- Version Identifier

OS:SimulationControl,
  {f196dbf4-7e5a-4d5e-86e3-afa7b60d6d3c}, !- Handle
  ,                                       !- Do Zone Sizing Calculation
  ,                                       !- Do System Sizing Calculation
  ,                                       !- Do Plant Sizing Calculation
  No;                                     !- Run Simulation for Sizing Periods

OS:Timestep,
  {0cf8d08d-c326-47a9-934b-432e82f68611}, !- Handle
  1;                                      !- Number of Timesteps per Hour

OS:ShadowCalculation,
  {97321e96-c10e-497b-ad1b-bc135069b47b}, !- Handle
  PolygonClipping,                        !- Shading Calculation Method
  ,                                       !- Shading Calculation Update Frequency Method
  20,                                     !- Shading Calculation Update Frequency
  200,                                    !- Maximum Figures in Shadow Overlap Calculations
  ,                                       !- Polygon Clipping Algorithm
  512,                                    !- Pixel Counting Resolution
  ,                                       !- Sky Diffuse Modeling Algorithm
  No,                                     !- Output External Shading Calculation Results
  No,                                     !- Disable Self-Shading Within Shading Zone Groups
  No;                                     !- Disable Self-Shading From Shading Zone Groups to Other Zones

OS:SurfaceConvectionAlgorithm:Outside,
  {51a134cc-3c3e-43c5-bdfe-26c002f00025}, !- Handle
  DOE-2;                                  !- Algorithm

OS:SurfaceConvectionAlgorithm:Inside,
  {dc955265-c19f-4837-9624-f7d9d884298d}, !- Handle
  TARP;                                   !- Algorithm

OS:ZoneCapacitanceMultiplier:ResearchSpecial,
  {90e216c4-55d9-427b-b9c5-6ec89cc0cd21}, !- Handle
  7,                                      !- Temperature Capacity Multiplier
  15,                                     !- Humidity Capacity Multiplier
  ;                                       !- Carbon Dioxide Capacity Multiplier

OS:ConvergenceLimits,
  {94e24088-9854-4f73-993c-7d75bdb2987f}, !- Handle
  0;                                      !- Minimum System Timestep {minutes}

OS:RunPeriod,
  {f5923a73-60c4-442c-94e5-3fbd2f1b06b5}, !- Handle
  Run Period 1,                           !- Name
  1,                                      !- Begin Month
  1,                                      !- Begin Day of Month
  12,                                     !- End Month
  31,                                     !- End Day of Month
  ,                                       !- Use Weather File Holidays and Special Days
  ,                                       !- Use Weather File Daylight Saving Period
  ,                                       !- Apply Weekend Holiday Rule
  ,                                       !- Use Weather File Rain Indicators
  ,                                       !- Use Weather File Snow Indicators
  ;                                       !- Number of Times Runperiod to be Repeated

OS:PerformancePrecisionTradeoffs,
  {4dda1703-c94b-4cb1-b87b-900d1dedd6cd}, !- Handle
  ,                                       !- Use Coil Direct Solutions
  CarrollMRT;                             !- Zone Radiant Exchange Algorithm

OS:WeatherFile,
  {80b6dcba-8f5d-459e-9f0c-ec821eef9cb1}, !- Handle
  Buffalo Niagara Intl Ap,                !- City
  NY,                                     !- State Province Region
  USA,                                    !- Country
  TMY3,                                   !- Data Source
  725280,                                 !- WMO Number
  42.93,                                  !- Latitude {deg}
  -78.73,                                 !- Longitude {deg}
  -5,                                     !- Time Zone {hr}
  215,                                    !- Elevation {m}
  /Users/nmoore/github/urbanopt-example-geojson-project/example_project/weather/USA_NY_Buffalo-Greater.Buffalo.Intl.AP.725280_TMY3.epw, !- Url
  6B50E0FF,                               !- Checksum
  ,                                       !- Start Date Actual Year
  Sunday;                                 !- Start Day of Week

OS:YearDescription,
  {954a03a7-e16b-435f-a771-4a7c74e59488}, !- Handle
  2007,                                   !- Calendar Year
  ,                                       !- Day of Week for Start Day
  ;                                       !- Is Leap Year

OS:Site,
  {5b4d6915-66bf-4ef6-af75-a7f92370a12d}, !- Handle
  Buffalo Niagara Intl Ap_NY,             !- Name
  42.93,                                  !- Latitude {deg}
  -78.73,                                 !- Longitude {deg}
  -5,                                     !- Time Zone {hr}
  215,                                    !- Elevation {m}
  Suburbs,                                !- Terrain
  Yes;                                    !- Keep Site Location Information

OS:RunPeriodControl:DaylightSavingTime,
  {d4e91995-47e4-43f0-8801-b42452bfb330}, !- Handle
  Mar 12,                                 !- Start Date
  Nov 5;                                  !- End Date

OS:Site:GroundTemperature:Shallow,
  {ee220724-0b5e-42ec-9560-43eebc8780cb}, !- Handle
  4.30207395723828,                       !- January Surface Ground Temperature {C}
  2.29327249652502,                       !- February Surface Ground Temperature {C}
  2.13240047156047,                       !- March Surface Ground Temperature {C}
  3.08567940719286,                       !- April Surface Ground Temperature {C}
  6.91256312497526,                       !- May Surface Ground Temperature {C}
  10.7216195949507,                       !- June Surface Ground Temperature {C}
  14.0238679822574,                       !- July Surface Ground Temperature {C}
  16.1157611184724,                       !- August Surface Ground Temperature {C}
  16.2934789303462,                       !- September Surface Ground Temperature {C}
  14.5920754632847,                       !- October Surface Ground Temperature {C}
  11.374036348653,                        !- November Surface Ground Temperature {C}
  7.68182621661674;                       !- December Surface Ground Temperature {C}

OS:ThermalZone,
  {274322ed-6e6e-4f0d-aba2-1efe1eb64990}, !- Handle
  conditioned space,                      !- Name
  1,                                      !- Multiplier
  ,                                       !- Ceiling Height {m}
  692.06373070848,                        !- Volume {m3}
  ,                                       !- Floor Area {m2}
  ,                                       !- Zone Inside Convection Algorithm
  ,                                       !- Zone Outside Convection Algorithm
  ,                                       !- Zone Conditioning Equipment List Name
  {ef47a302-a559-4a4a-85d8-b463133cc48f}, !- Zone Air Inlet Port List
  {5a35577b-aa86-4e55-8c07-eedf7b8b8edc}, !- Zone Air Exhaust Port List
  {a90ea329-1cb1-42c2-9e02-db560e3eaf87}, !- Zone Air Node Name
  {a4a82593-befc-4ac8-a791-e2025185cc2f}, !- Zone Return Air Port List
  ,                                       !- Primary Daylighting Control Name
  ,                                       !- Fraction of Zone Controlled by Primary Daylighting Control
  ,                                       !- Secondary Daylighting Control Name
  ,                                       !- Fraction of Zone Controlled by Secondary Daylighting Control
  ,                                       !- Illuminance Map Name
  ,                                       !- Group Rendering Name
  {79ca404f-8447-4305-b5fb-6a18b929dbb2}, !- Thermostat Name
  No;                                     !- Use Ideal Air Loads

OS:Node,
  {8c1027ef-32ac-4bb2-9832-3fce24739c26}, !- Handle
  Node 1,                                 !- Name
  {a90ea329-1cb1-42c2-9e02-db560e3eaf87}, !- Inlet Port
  ;                                       !- Outlet Port

OS:Connection,
  {a90ea329-1cb1-42c2-9e02-db560e3eaf87}, !- Handle
  {274322ed-6e6e-4f0d-aba2-1efe1eb64990}, !- Source Object
  11,                                     !- Outlet Port
  {8c1027ef-32ac-4bb2-9832-3fce24739c26}, !- Target Object
  2;                                      !- Inlet Port

OS:PortList,
  {ef47a302-a559-4a4a-85d8-b463133cc48f}, !- Handle
  {274322ed-6e6e-4f0d-aba2-1efe1eb64990}, !- HVAC Component
  {6f60068a-3c27-472f-9982-41d54208e86e}; !- Port 1

OS:PortList,
  {5a35577b-aa86-4e55-8c07-eedf7b8b8edc}, !- Handle
  {274322ed-6e6e-4f0d-aba2-1efe1eb64990}; !- HVAC Component

OS:PortList,
  {a4a82593-befc-4ac8-a791-e2025185cc2f}, !- Handle
  {274322ed-6e6e-4f0d-aba2-1efe1eb64990}, !- HVAC Component
  {20f451c1-c1fe-4ff3-a4e2-e57c12cd1a6b}; !- Port 1

OS:Sizing:Zone,
  {b29c8c62-d0d5-4b34-a580-fc8c5e1c940a}, !- Handle
  {274322ed-6e6e-4f0d-aba2-1efe1eb64990}, !- Zone or ZoneList Name
  SupplyAirTemperature,                   !- Zone Cooling Design Supply Air Temperature Input Method
  14,                                     !- Zone Cooling Design Supply Air Temperature {C}
  11.11,                                  !- Zone Cooling Design Supply Air Temperature Difference {deltaC}
  SupplyAirTemperature,                   !- Zone Heating Design Supply Air Temperature Input Method
  40,                                     !- Zone Heating Design Supply Air Temperature {C}
  11.11,                                  !- Zone Heating Design Supply Air Temperature Difference {deltaC}
  0.0085,                                 !- Zone Cooling Design Supply Air Humidity Ratio {kg-H2O/kg-air}
  0.008,                                  !- Zone Heating Design Supply Air Humidity Ratio {kg-H2O/kg-air}
  ,                                       !- Zone Heating Sizing Factor
  ,                                       !- Zone Cooling Sizing Factor
  DesignDay,                              !- Cooling Design Air Flow Method
  ,                                       !- Cooling Design Air Flow Rate {m3/s}
  ,                                       !- Cooling Minimum Air Flow per Zone Floor Area {m3/s-m2}
  ,                                       !- Cooling Minimum Air Flow {m3/s}
  ,                                       !- Cooling Minimum Air Flow Fraction
  DesignDay,                              !- Heating Design Air Flow Method
  ,                                       !- Heating Design Air Flow Rate {m3/s}
  ,                                       !- Heating Maximum Air Flow per Zone Floor Area {m3/s-m2}
  ,                                       !- Heating Maximum Air Flow {m3/s}
  ,                                       !- Heating Maximum Air Flow Fraction
  No,                                     !- Account for Dedicated Outdoor Air System
  NeutralSupplyAir,                       !- Dedicated Outdoor Air System Control Strategy
  autosize,                               !- Dedicated Outdoor Air Low Setpoint Temperature for Design {C}
  autosize,                               !- Dedicated Outdoor Air High Setpoint Temperature for Design {C}
  Sensible Load Only No Latent Load,      !- Zone Load Sizing Method
  HumidityRatioDifference,                !- Zone Latent Cooling Design Supply Air Humidity Ratio Input Method
  ,                                       !- Zone Dehumidification Design Supply Air Humidity Ratio {kgWater/kgDryAir}
  0.005,                                  !- Zone Cooling Design Supply Air Humidity Ratio Difference {kgWater/kgDryAir}
  HumidityRatioDifference,                !- Zone Latent Heating Design Supply Air Humidity Ratio Input Method
  ,                                       !- Zone Humidification Design Supply Air Humidity Ratio {kgWater/kgDryAir}
  0.005,                                  !- Zone Humidification Design Supply Air Humidity Ratio Difference {kgWater/kgDryAir}
  ,                                       !- Zone Humidistat Dehumidification Set Point Schedule Name
  ,                                       !- Zone Humidistat Humidification Set Point Schedule Name
  ,                                       !- Design Zone Air Distribution Effectiveness in Cooling Mode
  ,                                       !- Design Zone Air Distribution Effectiveness in Heating Mode
  ,                                       !- Design Zone Secondary Recirculation Fraction {dimensionless}
  ,                                       !- Design Minimum Zone Ventilation Efficiency {dimensionless}
  Coincident;                             !- Sizing Option

OS:ZoneHVAC:EquipmentList,
  {720af2e7-6fa4-4cc6-824c-5b920cb3a55f}, !- Handle
  Zone HVAC Equipment List 1,             !- Name
  {274322ed-6e6e-4f0d-aba2-1efe1eb64990}, !- Thermal Zone
  ,                                       !- Load Distribution Scheme
  {d0d21754-7ee2-45fa-89f8-3edfaff9b1a0}, !- Zone Equipment 1
  1,                                      !- Zone Equipment Cooling Sequence 1
  1,                                      !- Zone Equipment Heating or No-Load Sequence 1
  {f9ff448b-e7ad-4421-a6e4-29ce7a656b1e}, !- Zone Equipment Sequential Cooling Fraction Schedule Name 1
  {52c8f51e-da89-4f1e-aef4-969a8e0486cb}; !- Zone Equipment Sequential Heating Fraction Schedule Name 1

OS:AdditionalProperties,
  {f93eabd9-76ae-4c50-b039-289cbaf94dcc}, !- Handle
  {274322ed-6e6e-4f0d-aba2-1efe1eb64990}, !- Object Name
  ObjectType,                             !- Feature Name 1
  String,                                 !- Feature Data Type 1
  conditioned space;                      !- Feature Value 1

OS:Space,
  {580f6fbd-e5bd-4589-b10c-f3dac890910f}, !- Handle
  conditioned space 1,                    !- Name
  ,                                       !- Space Type Name
  ,                                       !- Default Construction Set Name
  ,                                       !- Default Schedule Set Name
  ,                                       !- Direction of Relative North {deg}
  ,                                       !- X Origin {m}
  ,                                       !- Y Origin {m}
  ,                                       !- Z Origin {m}
  ,                                       !- Building Story Name
  {274322ed-6e6e-4f0d-aba2-1efe1eb64990}, !- Thermal Zone Name
  ,                                       !- Part of Total Floor Area
  ,                                       !- Design Specification Outdoor Air Object Name
  ,                                       !- Building Unit Name
  692.06373070848;                        !- Volume {m3}

OS:Schedule:Ruleset,
  {28722947-d416-492d-a94e-d049e0807a1e}, !- Handle
  heating setpoint,                       !- Name
  {15add8a8-27a6-4f6b-9b87-656c3f88fc4b}, !- Schedule Type Limits Name
  {a6584eed-0128-41f7-a9d4-9ddeaf6de058}; !- Default Day Schedule Name

OS:Schedule:Day,
  {a6584eed-0128-41f7-a9d4-9ddeaf6de058}, !- Handle
  heating setpoint default day,           !- Name
  {15add8a8-27a6-4f6b-9b87-656c3f88fc4b}, !- Schedule Type Limits Name
  ,                                       !- Interpolate to Timestep
  24,                                     !- Hour 1
  0,                                      !- Minute 1
  0;                                      !- Value Until Time 1

OS:Schedule:Rule,
  {62bbb752-73a0-45e6-aa9a-468cc5550fc5}, !- Handle
  heating setpoint allday rule,           !- Name
  {28722947-d416-492d-a94e-d049e0807a1e}, !- Schedule Ruleset Name
  0,                                      !- Rule Order
  {c725928e-680f-4984-b271-eff4d508144d}, !- Day Schedule Name
  Yes,                                    !- Apply Sunday
  Yes,                                    !- Apply Monday
  Yes,                                    !- Apply Tuesday
  Yes,                                    !- Apply Wednesday
  Yes,                                    !- Apply Thursday
  Yes,                                    !- Apply Friday
  Yes,                                    !- Apply Saturday
  DateRange,                              !- Date Specification Type
  1,                                      !- Start Month
  1,                                      !- Start Day
  12,                                     !- End Month
  31;                                     !- End Day

OS:Schedule:Day,
  {c725928e-680f-4984-b271-eff4d508144d}, !- Handle
  heating setpoint day,                   !- Name
  {15add8a8-27a6-4f6b-9b87-656c3f88fc4b}, !- Schedule Type Limits Name
  ,                                       !- Interpolate to Timestep
  24,                                     !- Hour 1
  0,                                      !- Minute 1
  20;                                     !- Value Until Time 1

OS:Schedule:Ruleset,
  {76ab71d5-8ad8-413b-9f70-f7dc67a61c65}, !- Handle
  cooling setpoint,                       !- Name
  {15add8a8-27a6-4f6b-9b87-656c3f88fc4b}, !- Schedule Type Limits Name
  {10380944-31ff-49c9-a8ea-bc3746b255c3}; !- Default Day Schedule Name

OS:Schedule:Day,
  {10380944-31ff-49c9-a8ea-bc3746b255c3}, !- Handle
  cooling setpoint default day,           !- Name
  {15add8a8-27a6-4f6b-9b87-656c3f88fc4b}, !- Schedule Type Limits Name
  ,                                       !- Interpolate to Timestep
  24,                                     !- Hour 1
  0,                                      !- Minute 1
  0;                                      !- Value Until Time 1

OS:Schedule:Rule,
  {c30a8249-47e9-461e-93da-6f7a2ade0d66}, !- Handle
  cooling setpoint allday rule,           !- Name
  {76ab71d5-8ad8-413b-9f70-f7dc67a61c65}, !- Schedule Ruleset Name
  0,                                      !- Rule Order
  {9fd0dcd1-e996-4588-9bb6-9ee6a82e5092}, !- Day Schedule Name
  Yes,                                    !- Apply Sunday
  Yes,                                    !- Apply Monday
  Yes,                                    !- Apply Tuesday
  Yes,                                    !- Apply Wednesday
  Yes,                                    !- Apply Thursday
  Yes,                                    !- Apply Friday
  Yes,                                    !- Apply Saturday
  DateRange,                              !- Date Specification Type
  1,                                      !- Start Month
  1,                                      !- Start Day
  12,                                     !- End Month
  31;                                     !- End Day

OS:Schedule:Day,
  {9fd0dcd1-e996-4588-9bb6-9ee6a82e5092}, !- Handle
  cooling setpoint day,                   !- Name
  {15add8a8-27a6-4f6b-9b87-656c3f88fc4b}, !- Schedule Type Limits Name
  ,                                       !- Interpolate to Timestep
  24,                                     !- Hour 1
  0,                                      !- Minute 1
  25.5555555555556;                       !- Value Until Time 1

OS:ThermostatSetpoint:DualSetpoint,
  {79ca404f-8447-4305-b5fb-6a18b929dbb2}, !- Handle
  conditioned space temperature setpoint, !- Name
  {28722947-d416-492d-a94e-d049e0807a1e}, !- Heating Setpoint Temperature Schedule Name
  {76ab71d5-8ad8-413b-9f70-f7dc67a61c65}, !- Cooling Setpoint Temperature Schedule Name
  0;                                      !- Temperature Difference Between Cutout And Setpoint {deltaC}

OS:ScheduleTypeLimits,
  {15add8a8-27a6-4f6b-9b87-656c3f88fc4b}, !- Handle
  Temperature,                            !- Name
  ,                                       !- Lower Limit Value
  ,                                       !- Upper Limit Value
  Continuous,                             !- Numeric Type
  Temperature;                            !- Unit Type

OS:Surface,
  {82f5b1dc-c29c-48fa-b055-cae209a7d9f6}, !- Handle
  Roof1,                                  !- Name
  RoofCeiling,                            !- Surface Type
  {2431b67a-dc21-4514-ad9e-95803bbaf3b7}, !- Construction Name
  {c94dba69-0cac-42c7-a856-54e2e49f0d81}, !- Space Name
  Outdoors,                               !- Outside Boundary Condition
  ,                                       !- Outside Boundary Condition Object
  SunExposed,                             !- Sun Exposure
  WindExposed,                            !- Wind Exposure
  ,                                       !- View Factor to Ground
  ,                                       !- Number of Vertices
  -26.9347048849634, 58.0557891618865, 2.4384, !- X,Y,Z Vertex 1 {m}
  -26.9347048849634, 46.7895631136661, 8.0715130241102, !- X,Y,Z Vertex 2 {m}
  -14.3386812381136, 46.7895631136661, 8.0715130241102, !- X,Y,Z Vertex 3 {m}
  -14.3386812381136, 58.0557891618865, 2.4384; !- X,Y,Z Vertex 4 {m}

OS:AdditionalProperties,
  {ef498dba-03f5-4c5d-81d4-5288ec0cd5e9}, !- Handle
  {82f5b1dc-c29c-48fa-b055-cae209a7d9f6}, !- Object Name
  Length,                                 !- Feature Name 1
  Double,                                 !- Feature Data Type 1
  41.325536899113608,                     !- Feature Value 1
  Width,                                  !- Feature Name 2
  Double,                                 !- Feature Data Type 2
  41.325536899113601,                     !- Feature Value 2
  Azimuth,                                !- Feature Name 3
  Integer,                                !- Feature Data Type 3
  0,                                      !- Feature Value 3
  Tilt,                                   !- Feature Name 4
  Double,                                 !- Feature Data Type 4
  0.5,                                    !- Feature Value 4
  SurfaceType,                            !- Feature Name 5
  String,                                 !- Feature Data Type 5
  Roof;                                   !- Feature Value 5

OS:ThermalZone,
  {bea95eb2-e746-40d3-b262-2cff6348e16d}, !- Handle
  attic - vented,                         !- Name
  1,                                      !- Multiplier
  ,                                       !- Ceiling Height {m}
  356.389957095237,                       !- Volume {m3}
  ,                                       !- Floor Area {m2}
  ,                                       !- Zone Inside Convection Algorithm
  ,                                       !- Zone Outside Convection Algorithm
  ,                                       !- Zone Conditioning Equipment List Name
  {f6ca2c65-bd3c-44fb-8aa5-c957974190b0}, !- Zone Air Inlet Port List
  {614846c4-2078-4d70-ab5a-6ac8db2ca382}, !- Zone Air Exhaust Port List
  {b775ae40-c6a7-438c-805f-1210cdef8bfa}, !- Zone Air Node Name
  {71dace0a-b1f8-4882-a409-ba906f68c22a}, !- Zone Return Air Port List
  ,                                       !- Primary Daylighting Control Name
  ,                                       !- Fraction of Zone Controlled by Primary Daylighting Control
  ,                                       !- Secondary Daylighting Control Name
  ,                                       !- Fraction of Zone Controlled by Secondary Daylighting Control
  ,                                       !- Illuminance Map Name
  ,                                       !- Group Rendering Name
  ,                                       !- Thermostat Name
  No;                                     !- Use Ideal Air Loads

OS:Node,
  {3fa68ea3-af50-4e15-b7b0-c5b88543a1de}, !- Handle
  Node 2,                                 !- Name
  {b775ae40-c6a7-438c-805f-1210cdef8bfa}, !- Inlet Port
  ;                                       !- Outlet Port

OS:Connection,
  {b775ae40-c6a7-438c-805f-1210cdef8bfa}, !- Handle
  {bea95eb2-e746-40d3-b262-2cff6348e16d}, !- Source Object
  11,                                     !- Outlet Port
  {3fa68ea3-af50-4e15-b7b0-c5b88543a1de}, !- Target Object
  2;                                      !- Inlet Port

OS:PortList,
  {f6ca2c65-bd3c-44fb-8aa5-c957974190b0}, !- Handle
  {bea95eb2-e746-40d3-b262-2cff6348e16d}; !- HVAC Component

OS:PortList,
  {614846c4-2078-4d70-ab5a-6ac8db2ca382}, !- Handle
  {bea95eb2-e746-40d3-b262-2cff6348e16d}; !- HVAC Component

OS:PortList,
  {71dace0a-b1f8-4882-a409-ba906f68c22a}, !- Handle
  {bea95eb2-e746-40d3-b262-2cff6348e16d}; !- HVAC Component

OS:Sizing:Zone,
  {ebfbe07c-1ba4-4e26-a6f5-0989c18402a9}, !- Handle
  {bea95eb2-e746-40d3-b262-2cff6348e16d}, !- Zone or ZoneList Name
  SupplyAirTemperature,                   !- Zone Cooling Design Supply Air Temperature Input Method
  14,                                     !- Zone Cooling Design Supply Air Temperature {C}
  11.11,                                  !- Zone Cooling Design Supply Air Temperature Difference {deltaC}
  SupplyAirTemperature,                   !- Zone Heating Design Supply Air Temperature Input Method
  40,                                     !- Zone Heating Design Supply Air Temperature {C}
  11.11,                                  !- Zone Heating Design Supply Air Temperature Difference {deltaC}
  0.0085,                                 !- Zone Cooling Design Supply Air Humidity Ratio {kg-H2O/kg-air}
  0.008,                                  !- Zone Heating Design Supply Air Humidity Ratio {kg-H2O/kg-air}
  ,                                       !- Zone Heating Sizing Factor
  ,                                       !- Zone Cooling Sizing Factor
  DesignDay,                              !- Cooling Design Air Flow Method
  ,                                       !- Cooling Design Air Flow Rate {m3/s}
  ,                                       !- Cooling Minimum Air Flow per Zone Floor Area {m3/s-m2}
  ,                                       !- Cooling Minimum Air Flow {m3/s}
  ,                                       !- Cooling Minimum Air Flow Fraction
  DesignDay,                              !- Heating Design Air Flow Method
  ,                                       !- Heating Design Air Flow Rate {m3/s}
  ,                                       !- Heating Maximum Air Flow per Zone Floor Area {m3/s-m2}
  ,                                       !- Heating Maximum Air Flow {m3/s}
  ,                                       !- Heating Maximum Air Flow Fraction
  No,                                     !- Account for Dedicated Outdoor Air System
  NeutralSupplyAir,                       !- Dedicated Outdoor Air System Control Strategy
  autosize,                               !- Dedicated Outdoor Air Low Setpoint Temperature for Design {C}
  autosize,                               !- Dedicated Outdoor Air High Setpoint Temperature for Design {C}
  Sensible Load Only No Latent Load,      !- Zone Load Sizing Method
  HumidityRatioDifference,                !- Zone Latent Cooling Design Supply Air Humidity Ratio Input Method
  ,                                       !- Zone Dehumidification Design Supply Air Humidity Ratio {kgWater/kgDryAir}
  0.005,                                  !- Zone Cooling Design Supply Air Humidity Ratio Difference {kgWater/kgDryAir}
  HumidityRatioDifference,                !- Zone Latent Heating Design Supply Air Humidity Ratio Input Method
  ,                                       !- Zone Humidification Design Supply Air Humidity Ratio {kgWater/kgDryAir}
  0.005,                                  !- Zone Humidification Design Supply Air Humidity Ratio Difference {kgWater/kgDryAir}
  ,                                       !- Zone Humidistat Dehumidification Set Point Schedule Name
  ,                                       !- Zone Humidistat Humidification Set Point Schedule Name
  ,                                       !- Design Zone Air Distribution Effectiveness in Cooling Mode
  ,                                       !- Design Zone Air Distribution Effectiveness in Heating Mode
  ,                                       !- Design Zone Secondary Recirculation Fraction {dimensionless}
  ,                                       !- Design Minimum Zone Ventilation Efficiency {dimensionless}
  Coincident;                             !- Sizing Option

OS:ZoneHVAC:EquipmentList,
  {feaba519-72e9-4651-90ea-0983e574949c}, !- Handle
  Zone HVAC Equipment List 2,             !- Name
  {bea95eb2-e746-40d3-b262-2cff6348e16d}; !- Thermal Zone

OS:AdditionalProperties,
  {4d3bed3c-c5e5-4940-87da-c4c6bf7de960}, !- Handle
  {bea95eb2-e746-40d3-b262-2cff6348e16d}, !- Object Name
  ObjectType,                             !- Feature Name 1
  String,                                 !- Feature Data Type 1
  attic - vented;                         !- Feature Value 1

OS:Space,
  {c94dba69-0cac-42c7-a856-54e2e49f0d81}, !- Handle
  attic - vented 1,                       !- Name
  ,                                       !- Space Type Name
  ,                                       !- Default Construction Set Name
  ,                                       !- Default Schedule Set Name
  ,                                       !- Direction of Relative North {deg}
  ,                                       !- X Origin {m}
  ,                                       !- Y Origin {m}
  ,                                       !- Z Origin {m}
  ,                                       !- Building Story Name
  {bea95eb2-e746-40d3-b262-2cff6348e16d}, !- Thermal Zone Name
  ,                                       !- Part of Total Floor Area
  ,                                       !- Design Specification Outdoor Air Object Name
  ,                                       !- Building Unit Name
  356.389957095237;                       !- Volume {m3}

OS:Material,
  {1e892c7b-8e14-4702-8c75-30da7ddf4ecf}, !- Handle
  asphalt or fiberglass shingles,         !- Name
  Rough,                                  !- Roughness
  0.00635,                                !- Thickness {m}
  0.162714,                               !- Conductivity {W/m-K}
  1121.4,                                 !- Density {kg/m3}
  1465.45,                                !- Specific Heat {J/kg-K}
  0.9,                                    !- Thermal Absorptance
  0.85,                                   !- Solar Absorptance