
OS:Version,
  {66a399e1-e6e6-4fad-900f-d93c95742657}, !- Handle
  3.10.0;                                 !- Version Identifier

OS:SimulationControl,
  {c79ca9e8-27f9-44b7-8ce1-455c92841ae8}, !- Handle
  ,                                       !- Do Zone Sizing Calculation
  ,                                       !- Do System Sizing Calculation
  ,                                       !- Do Plant Sizing Calculation
  No;                                     !- Run Simulation for Sizing Periods

OS:Timestep,
  {e0ab49af-8f89-443d-9484-4177c7404e48}, !- Handle
  1;                                      !- Number of Timesteps per Hour

OS:ShadowCalculation,
  {c0aed138-b204-4e6c-9589-aa5a3d0e4605}, !- Handle
  PolygonClipping,                        !- Shading Calculation Method
  ,                                       !- Shading Calculation Update Frequency Method
  20,                                     !- Shading Calculation Update Frequency
  200,                                    !- Maximum Figures in Shadow Overlap Calculations
  ,                                       !- Polygon Clipping Algorithm
  512,                                    !- Pixel Counting Resolution
  ,                                       !- Sky Diffuse Modeling Algorithm
  No,                                     !- Output External Shading Calculation Results
  No,                                     !- Disable Self-Shading Within Shading Zone Groups
  No;                                     !- Disable Self-Shading From Shading Zone Groups to Other Zones

OS:SurfaceConvectionAlgorithm:Outside,
  {51db6096-b444-4e9f-8a3d-0715c984c5b9}, !- Handle
  DOE-2;                                  !- Algorithm

OS:SurfaceConvectionAlgorithm:Inside,
  {89f02ebf-632b-4c8e-b7ff-c12acfaeef17}, !- Handle
  TARP;                                   !- Algorithm

OS:ZoneCapacitanceMultiplier:ResearchSpecial,
  {cde7851d-636a-416d-9524-cb36ada8d3ae}, !- Handle
  7,                                      !- Temperature Capacity Multiplier
  15,                                     !- Humidity Capacity Multiplier
  ;                                       !- Carbon Dioxide Capacity Multiplier

OS:ConvergenceLimits,
  {a37a46b0-0be1-4d02-aa84-46e8995eff77}, !- Handle
  0;                                      !- Minimum System Timestep {minutes}

OS:RunPeriod,
  {bc650da1-0933-4ca9-9986-da39b4fd02b8}, !- Handle
  Run Period 1,                           !- Name
  1,                                      !- Begin Month
  1,                                      !- Begin Day of Month
  12,                                     !- End Month
  31,                                     !- End Day of Month
  ,                                       !- Use Weather File Holidays and Special Days
  ,                                       !- Use Weather File Daylight Saving Period
  ,                                       !- Apply Weekend Holiday Rule
  ,                                       !- Use Weather File Rain Indicators
  ,                                       !- Use Weather File Snow Indicators
  ;                                       !- Number of Times Runperiod to be Repeated

OS:PerformancePrecisionTradeoffs,
  {e4443bfc-43e3-4707-ae5e-0c1ac2c55dde}, !- Handle
  ,                                       !- Use Coil Direct Solutions
  CarrollMRT;                             !- Zone Radiant Exchange Algorithm

OS:WeatherFile,
  {2862b4fd-396a-4a12-8fb6-639dcd036560}, !- Handle
  Buffalo Niagara Intl Ap,                !- City
  NY,                                     !- State Province Region
  USA,                                    !- Country
  TMY3,                                   !- Data Source
  725280,                                 !- WMO Number
  42.93,                                  !- Latitude {deg}
  -78.73,                                 !- Longitude {deg}
  -5,                                     !- Time Zone {hr}
  215,                                    !- Elevation {m}
  /Users/nmoore/github/urbanopt-example-geojson-project/example_project/weather/USA_NY_Buffalo-Greater.Buffalo.Intl.AP.725280_TMY3.epw, !- Url
  6B50E0FF,                               !- Checksum
  ,                                       !- Start Date Actual Year
  Sunday;                                 !- Start Day of Week

OS:YearDescription,
  {4da983b4-c71c-4162-a0e4-9860e21bcceb}, !- Handle
  2007,                                   !- Calendar Year
  ,                                       !- Day of Week for Start Day
  ;                                       !- Is Leap Year

OS:Site,
  {c4684fb8-2631-466c-9166-621c2ab934bf}, !- Handle
  Buffalo Niagara Intl Ap_NY,             !- Name
  42.93,                                  !- Latitude {deg}
  -78.73,                                 !- Longitude {deg}
  -5,                                     !- Time Zone {hr}
  215,                                    !- Elevation {m}
  Suburbs,                                !- Terrain
  Yes;                                    !- Keep Site Location Information

OS:RunPeriodControl:DaylightSavingTime,
  {2e455a35-db70-4a9e-a3d7-e816ab89ac09}, !- Handle
  Mar 12,                                 !- Start Date
  Nov 5;                                  !- End Date

OS:Site:GroundTemperature:Shallow,
  {2abe1169-fa49-42c9-a759-c9c540925309}, !- Handle
  4.30207395723828,                       !- January Surface Ground Temperature {C}
  2.29327249652502,                       !- February Surface Ground Temperature {C}
  2.13240047156047,                       !- March Surface Ground Temperature {C}
  3.08567940719286,                       !- April Surface Ground Temperature {C}
  6.91256312497526,                       !- May Surface Ground Temperature {C}
  10.7216195949507,                       !- June Surface Ground Temperature {C}
  14.0238679822574,                       !- July Surface Ground Temperature {C}
  16.1157611184724,                       !- August Surface Ground Temperature {C}
  16.2934789303462,                       !- September Surface Ground Temperature {C}
  14.5920754632847,                       !- October Surface Ground Temperature {C}
  11.374036348653,                        !- November Surface Ground Temperature {C}
  7.68182621661674;                       !- December Surface Ground Temperature {C}

OS:ThermalZone,
  {f33fc425-c637-43d0-a476-75a53c852774}, !- Handle
  conditioned space,                      !- Name
  1,                                      !- Multiplier
  ,                                       !- Ceiling Height {m}
  692.06373070848,                        !- Volume {m3}
  ,                                       !- Floor Area {m2}
  ,                                       !- Zone Inside Convection Algorithm
  ,                                       !- Zone Outside Convection Algorithm
  ,                                       !- Zone Conditioning Equipment List Name
  {eb6f5122-ebd1-420c-86c6-3c196b81c51d}, !- Zone Air Inlet Port List
  {674b8e51-94bb-4a9f-9da0-73e92ab9b58b}, !- Zone Air Exhaust Port List
  {90556af8-832f-4c80-be3d-dc78eab4a68e}, !- Zone Air Node Name
  {524ef4c6-dfbf-4f7d-8885-d62eb552b066}, !- Zone Return Air Port List
  ,                                       !- Primary Daylighting Control Name
  ,                                       !- Fraction of Zone Controlled by Primary Daylighting Control
  ,                                       !- Secondary Daylighting Control Name
  ,                                       !- Fraction of Zone Controlled by Secondary Daylighting Control
  ,                                       !- Illuminance Map Name
  ,                                       !- Group Rendering Name
  {4bb60db8-bc29-489a-bdf5-f726a2020994}, !- Thermostat Name
  No;                                     !- Use Ideal Air Loads

OS:Node,
  {9c2c2bac-f81e-44cb-acc9-b14513cd6386}, !- Handle
  Node 1,                                 !- Name
  {90556af8-832f-4c80-be3d-dc78eab4a68e}, !- Inlet Port
  ;                                       !- Outlet Port

OS:Connection,
  {90556af8-832f-4c80-be3d-dc78eab4a68e}, !- Handle
  {f33fc425-c637-43d0-a476-75a53c852774}, !- Source Object
  11,                                     !- Outlet Port
  {9c2c2bac-f81e-44cb-acc9-b14513cd6386}, !- Target Object
  2;                                      !- Inlet Port

OS:PortList,
  {eb6f5122-ebd1-420c-86c6-3c196b81c51d}, !- Handle
  {f33fc425-c637-43d0-a476-75a53c852774}, !- HVAC Component
  {f7be2871-f3fe-4aa2-a4b6-2d5a177ce34c}; !- Port 1

OS:PortList,
  {674b8e51-94bb-4a9f-9da0-73e92ab9b58b}, !- Handle
  {f33fc425-c637-43d0-a476-75a53c852774}; !- HVAC Component

OS:PortList,
  {524ef4c6-dfbf-4f7d-8885-d62eb552b066}, !- Handle
  {f33fc425-c637-43d0-a476-75a53c852774}, !- HVAC Component
  {6e63845f-d88a-4e5e-b077-a26132aba0a4}; !- Port 1

OS:Sizing:Zone,
  {ede4404e-96d6-4b2a-8775-7afaad7b5ac4}, !- Handle
  {f33fc425-c637-43d0-a476-75a53c852774}, !- Zone or ZoneList Name
  SupplyAirTemperature,                   !- Zone Cooling Design Supply Air Temperature Input Method
  14,                                     !- Zone Cooling Design Supply Air Temperature {C}
  11.11,                                  !- Zone Cooling Design Supply Air Temperature Difference {deltaC}
  SupplyAirTemperature,                   !- Zone Heating Design Supply Air Temperature Input Method
  40,                                     !- Zone Heating Design Supply Air Temperature {C}
  11.11,                                  !- Zone Heating Design Supply Air Temperature Difference {deltaC}
  0.0085,                                 !- Zone Cooling Design Supply Air Humidity Ratio {kg-H2O/kg-air}
  0.008,                                  !- Zone Heating Design Supply Air Humidity Ratio {kg-H2O/kg-air}
  ,                                       !- Zone Heating Sizing Factor
  ,                                       !- Zone Cooling Sizing Factor
  DesignDay,                              !- Cooling Design Air Flow Method
  ,                                       !- Cooling Design Air Flow Rate {m3/s}
  ,                                       !- Cooling Minimum Air Flow per Zone Floor Area {m3/s-m2}
  ,                                       !- Cooling Minimum Air Flow {m3/s}
  ,                                       !- Cooling Minimum Air Flow Fraction
  DesignDay,                              !- Heating Design Air Flow Method
  ,                                       !- Heating Design Air Flow Rate {m3/s}
  ,                                       !- Heating Maximum Air Flow per Zone Floor Area {m3/s-m2}
  ,                                       !- Heating Maximum Air Flow {m3/s}
  ,                                       !- Heating Maximum Air Flow Fraction
  No,                                     !- Account for Dedicated Outdoor Air System
  NeutralSupplyAir,                       !- Dedicated Outdoor Air System Control Strategy
  autosize,                               !- Dedicated Outdoor Air Low Setpoint Temperature for Design {C}
  autosize,                               !- Dedicated Outdoor Air High Setpoint Temperature for Design {C}
  Sensible Load Only No Latent Load,      !- Zone Load Sizing Method
  HumidityRatioDifference,                !- Zone Latent Cooling Design Supply Air Humidity Ratio Input Method
  ,                                       !- Zone Dehumidification Design Supply Air Humidity Ratio {kgWater/kgDryAir}
  0.005,                                  !- Zone Cooling Design Supply Air Humidity Ratio Difference {kgWater/kgDryAir}
  HumidityRatioDifference,                !- Zone Latent Heating Design Supply Air Humidity Ratio Input Method
  ,                                       !- Zone Humidification Design Supply Air Humidity Ratio {kgWater/kgDryAir}
  0.005,                                  !- Zone Humidification Design Supply Air Humidity Ratio Difference {kgWater/kgDryAir}
  ,                                       !- Zone Humidistat Dehumidification Set Point Schedule Name
  ,                                       !- Zone Humidistat Humidification Set Point Schedule Name
  ,                                       !- Design Zone Air Distribution Effectiveness in Cooling Mode
  ,                                       !- Design Zone Air Distribution Effectiveness in Heating Mode
  ,                                       !- Design Zone Secondary Recirculation Fraction {dimensionless}
  ,                                       !- Design Minimum Zone Ventilation Efficiency {dimensionless}
  Coincident;                             !- Sizing Option

OS:ZoneHVAC:EquipmentList,
  {69dc30a7-3c6c-4f70-a453-d3b5a2ea6688}, !- Handle
  Zone HVAC Equipment List 1,             !- Name
  {f33fc425-c637-43d0-a476-75a53c852774}, !- Thermal Zone
  ,                                       !- Load Distribution Scheme
  {3b946e33-5935-480b-8552-6463be944805}, !- Zone Equipment 1
  1,                                      !- Zone Equipment Cooling Sequence 1
  1,                                      !- Zone Equipment Heating or No-Load Sequence 1
  {6524e941-890b-4c6d-9b3e-9396e7f18bbc}, !- Zone Equipment Sequential Cooling Fraction Schedule Name 1
  {8bd313a1-63af-495b-bb1d-05b565940a16}; !- Zone Equipment Sequential Heating Fraction Schedule Name 1

OS:AdditionalProperties,
  {da2c8b8f-9376-4d05-9fa0-4249dca254bd}, !- Handle
  {f33fc425-c637-43d0-a476-75a53c852774}, !- Object Name
  ObjectType,                             !- Feature Name 1
  String,                                 !- Feature Data Type 1
  conditioned space;                      !- Feature Value 1

OS:Space,
  {686889a7-5fec-4889-af56-4c67cf141b84}, !- Handle
  conditioned space 1,                    !- Name
  ,                                       !- Space Type Name
  ,                                       !- Default Construction Set Name
  ,                                       !- Default Schedule Set Name
  ,                                       !- Direction of Relative North {deg}
  ,                                       !- X Origin {m}
  ,                                       !- Y Origin {m}
  ,                                       !- Z Origin {m}
  ,                                       !- Building Story Name
  {f33fc425-c637-43d0-a476-75a53c852774}, !- Thermal Zone Name
  ,                                       !- Part of Total Floor Area
  ,                                       !- Design Specification Outdoor Air Object Name
  ,                                       !- Building Unit Name
  692.06373070848;                        !- Volume {m3}

OS:Schedule:Ruleset,
  {cd9cd992-b560-4824-97ca-959adc39254c}, !- Handle
  heating setpoint,                       !- Name
  {2176c297-c1f2-44fb-ad7a-cbf58411ca61}, !- Schedule Type Limits Name
  {5c0539ef-0986-4ea5-81b6-20e75d5b9783}; !- Default Day Schedule Name

OS:Schedule:Day,
  {5c0539ef-0986-4ea5-81b6-20e75d5b9783}, !- Handle
  heating setpoint default day,           !- Name
  {2176c297-c1f2-44fb-ad7a-cbf58411ca61}, !- Schedule Type Limits Name
  ,                                       !- Interpolate to Timestep
  24,                                     !- Hour 1
  0,                                      !- Minute 1
  0;                                      !- Value Until Time 1

OS:Schedule:Rule,
  {18a1ef8f-f309-49c3-a17c-53ff512d7f0a}, !- Handle
  heating setpoint allday rule,           !- Name
  {cd9cd992-b560-4824-97ca-959adc39254c}, !- Schedule Ruleset Name
  0,                                      !- Rule Order
  {291eff7b-dfbc-48f8-84f9-400aeaece7f7}, !- Day Schedule Name
  Yes,                                    !- Apply Sunday
  Yes,                                    !- Apply Monday
  Yes,                                    !- Apply Tuesday
  Yes,                                    !- Apply Wednesday
  Yes,                                    !- Apply Thursday
  Yes,                                    !- Apply Friday
  Yes,                                    !- Apply Saturday
  DateRange,                              !- Date Specification Type
  1,                                      !- Start Month
  1,                                      !- Start Day
  12,                                     !- End Month
  31;                                     !- End Day

OS:Schedule:Day,
  {291eff7b-dfbc-48f8-84f9-400aeaece7f7}, !- Handle
  heating setpoint day,                   !- Name
  {2176c297-c1f2-44fb-ad7a-cbf58411ca61}, !- Schedule Type Limits Name
  ,                                       !- Interpolate to Timestep
  24,                                     !- Hour 1
  0,                                      !- Minute 1
  20;                                     !- Value Until Time 1

OS:Schedule:Ruleset,
  {bebb1e38-3389-4942-9ba0-b966dfb905ef}, !- Handle
  cooling setpoint,                       !- Name
  {2176c297-c1f2-44fb-ad7a-cbf58411ca61}, !- Schedule Type Limits Name
  {deda54e2-05cf-42e0-ad9c-c93067a26dd4}; !- Default Day Schedule Name

OS:Schedule:Day,
  {deda54e2-05cf-42e0-ad9c-c93067a26dd4}, !- Handle
  cooling setpoint default day,           !- Name
  {2176c297-c1f2-44fb-ad7a-cbf58411ca61}, !- Schedule Type Limits Name
  ,                                       !- Interpolate to Timestep
  24,                                     !- Hour 1
  0,                                      !- Minute 1
  0;                                      !- Value Until Time 1

OS:Schedule:Rule,
  {d0513061-8a22-4be4-87e1-6a6424c9d220}, !- Handle
  cooling setpoint allday rule,           !- Name
  {bebb1e38-3389-4942-9ba0-b966dfb905ef}, !- Schedule Ruleset Name
  0,                                      !- Rule Order
  {a3e42ed8-2ebd-4899-b76f-35e8458ff3b3}, !- Day Schedule Name
  Yes,                                    !- Apply Sunday
  Yes,                                    !- Apply Monday
  Yes,                                    !- Apply Tuesday
  Yes,                                    !- Apply Wednesday
  Yes,                                    !- Apply Thursday
  Yes,                                    !- Apply Friday
  Yes,                                    !- Apply Saturday
  DateRange,                              !- Date Specification Type
  1,                                      !- Start Month
  1,                                      !- Start Day
  12,                                     !- End Month
  31;                                     !- End Day

OS:Schedule:Day,
  {a3e42ed8-2ebd-4899-b76f-35e8458ff3b3}, !- Handle
  cooling setpoint day,                   !- Name
  {2176c297-c1f2-44fb-ad7a-cbf58411ca61}, !- Schedule Type Limits Name
  ,                                       !- Interpolate to Timestep
  24,                                     !- Hour 1
  0,                                      !- Minute 1
  25.5555555555556;                       !- Value Until Time 1

OS:ThermostatSetpoint:DualSetpoint,
  {4bb60db8-bc29-489a-bdf5-f726a2020994}, !- Handle
  conditioned space temperature setpoint, !- Name
  {cd9cd992-b560-4824-97ca-959adc39254c}, !- Heating Setpoint Temperature Schedule Name
  {bebb1e38-3389-4942-9ba0-b966dfb905ef}, !- Cooling Setpoint Temperature Schedule Name
  0;                                      !- Temperature Difference Between Cutout And Setpoint {deltaC}

OS:ScheduleTypeLimits,
  {2176c297-c1f2-44fb-ad7a-cbf58411ca61}, !- Handle
  Temperature,                            !- Name
  ,                                       !- Lower Limit Value
  ,                                       !- Upper Limit Value
  Continuous,                             !- Numeric Type
  Temperature;                            !- Unit Type

OS:Surface,
  {11c81c58-0a1f-4029-9177-ce71834ba105}, !- Handle
  Roof1,                                  !- Name
  RoofCeiling,                            !- Surface Type
  {e1ef1c82-dfef-474d-ac08-e52d8cb0be52}, !- Construction Name
  {d23a2c8f-8432-4240-9b64-9c03a17805e1}, !- Space Name
  Outdoors,                               !- Outside Boundary Condition
  ,                                       !- Outside Boundary Condition Object
  SunExposed,                             !- Sun Exposure
  WindExposed,                            !- Wind Exposure
  ,                                       !- View Factor to Ground
  ,                                       !- Number of Vertices
  -26.9347048849634, 58.0557891618865, 2.4384, !- X,Y,Z Vertex 1 {m}
  -26.9347048849634, 46.7895631136661, 8.0715130241102, !- X,Y,Z Vertex 2 {m}
  -14.3386812381136, 46.7895631136661, 8.0715130241102, !- X,Y,Z Vertex 3 {m}
  -14.3386812381136, 58.0557891618865, 2.4384; !- X,Y,Z Vertex 4 {m}

OS:AdditionalProperties,
  {cd3a61e8-f10f-4bd1-ae10-b4026caf3abd}, !- Handle
  {11c81c58-0a1f-4029-9177-ce71834ba105}, !- Object Name
  Length,                                 !- Feature Name 1
  Double,                                 !- Feature Data Type 1
  41.325536899113608,                     !- Feature Value 1
  Width,                                  !- Feature Name 2
  Double,                                 !- Feature Data Type 2
  41.325536899113601,                     !- Feature Value 2
  Azimuth,                                !- Feature Name 3
  Integer,                                !- Feature Data Type 3
  0,                                      !- Feature Value 3
  Tilt,                                   !- Feature Name 4
  Double,                                 !- Feature Data Type 4
  0.5,                                    !- Feature Value 4
  SurfaceType,                            !- Feature Name 5
  String,                                 !- Feature Data Type 5
  Roof;                                   !- Feature Value 5

OS:ThermalZone,
  {345d896b-b1f0-4d77-a304-34ae712885f5}, !- Handle
  attic - vented,                         !- Name
  1,                                      !- Multiplier
  ,                                       !- Ceiling Height {m}
  356.390921899745,                       !- Volume {m3}
  ,                                       !- Floor Area {m2}
  ,                                       !- Zone Inside Convection Algorithm
  ,                                       !- Zone Outside Convection Algorithm
  ,                                       !- Zone Conditioning Equipment List Name
  {00fc2510-5b6a-420a-be11-450775d75d19}, !- Zone Air Inlet Port List
  {537ad517-9917-406a-a967-738e205a8664}, !- Zone Air Exhaust Port List
  {9da17dd2-f3a3-4299-b449-c0c7551b3604}, !- Zone Air Node Name
  {26610479-3771-4efd-b6fd-fe5c032d6a43}, !- Zone Return Air Port List
  ,                                       !- Primary Daylighting Control Name
  ,                                       !- Fraction of Zone Controlled by Primary Daylighting Control
  ,                                       !- Secondary Daylighting Control Name
  ,                                       !- Fraction of Zone Controlled by Secondary Daylighting Control
  ,                                       !- Illuminance Map Name
  ,                                       !- Group Rendering Name
  ,                                       !- Thermostat Name
  No;                                     !- Use Ideal Air Loads

OS:Node,
  {84527ff6-939c-467a-996a-9eca68f561d9}, !- Handle
  Node 2,                                 !- Name
  {9da17dd2-f3a3-4299-b449-c0c7551b3604}, !- Inlet Port
  ;                                       !- Outlet Port

OS:Connection,
  {9da17dd2-f3a3-4299-b449-c0c7551b3604}, !- Handle
  {345d896b-b1f0-4d77-a304-34ae712885f5}, !- Source Object
  11,                                     !- Outlet Port
  {84527ff6-939c-467a-996a-9eca68f561d9}, !- Target Object
  2;                                      !- Inlet Port

OS:PortList,
  {00fc2510-5b6a-420a-be11-450775d75d19}, !- Handle
  {345d896b-b1f0-4d77-a304-34ae712885f5}; !- HVAC Component

OS:PortList,
  {537ad517-9917-406a-a967-738e205a8664}, !- Handle
  {345d896b-b1f0-4d77-a304-34ae712885f5}; !- HVAC Component

OS:PortList,
  {26610479-3771-4efd-b6fd-fe5c032d6a43}, !- Handle
  {345d896b-b1f0-4d77-a304-34ae712885f5}; !- HVAC Component

OS:Sizing:Zone,
  {1db79cc8-c66a-41fa-81c1-6ab7f6c5c6dc}, !- Handle
  {345d896b-b1f0-4d77-a304-34ae712885f5}, !- Zone or ZoneList Name
  SupplyAirTemperature,                   !- Zone Cooling Design Supply Air Temperature Input Method
  14,                                     !- Zone Cooling Design Supply Air Temperature {C}
  11.11,                                  !- Zone Cooling Design Supply Air Temperature Difference {deltaC}
  SupplyAirTemperature,                   !- Zone Heating Design Supply Air Temperature Input Method
  40,                                     !- Zone Heating Design Supply Air Temperature {C}
  11.11,                                  !- Zone Heating Design Supply Air Temperature Difference {deltaC}
  0.0085,                                 !- Zone Cooling Design Supply Air Humidity Ratio {kg-H2O/kg-air}
  0.008,                                  !- Zone Heating Design Supply Air Humidity Ratio {kg-H2O/kg-air}
  ,                                       !- Zone Heating Sizing Factor
  ,                                       !- Zone Cooling Sizing Factor
  DesignDay,                              !- Cooling Design Air Flow Method
  ,                                       !- Cooling Design Air Flow Rate {m3/s}
  ,                                       !- Cooling Minimum Air Flow per Zone Floor Area {m3/s-m2}
  ,                                       !- Cooling Minimum Air Flow {m3/s}
  ,                                       !- Cooling Minimum Air Flow Fraction
  DesignDay,                              !- Heating Design Air Flow Method
  ,                                       !- Heating Design Air Flow Rate {m3/s}
  ,                                       !- Heating Maximum Air Flow per Zone Floor Area {m3/s-m2}
  ,                                       !- Heating Maximum Air Flow {m3/s}
  ,                                       !- Heating Maximum Air Flow Fraction
  No,                                     !- Account for Dedicated Outdoor Air System
  NeutralSupplyAir,                       !- Dedicated Outdoor Air System Control Strategy
  autosize,                               !- Dedicated Outdoor Air Low Setpoint Temperature for Design {C}
  autosize,                               !- Dedicated Outdoor Air High Setpoint Temperature for Design {C}
  Sensible Load Only No Latent Load,      !- Zone Load Sizing Method
  HumidityRatioDifference,                !- Zone Latent Cooling Design Supply Air Humidity Ratio Input Method
  ,                                       !- Zone Dehumidification Design Supply Air Humidity Ratio {kgWater/kgDryAir}
  0.005,                                  !- Zone Cooling Design Supply Air Humidity Ratio Difference {kgWater/kgDryAir}
  HumidityRatioDifference,                !- Zone Latent Heating Design Supply Air Humidity Ratio Input Method
  ,                                       !- Zone Humidification Design Supply Air Humidity Ratio {kgWater/kgDryAir}
  0.005,                                  !- Zone Humidification Design Supply Air Humidity Ratio Difference {kgWater/kgDryAir}
  ,                                       !- Zone Humidistat Dehumidification Set Point Schedule Name
  ,                                       !- Zone Humidistat Humidification Set Point Schedule Name
  ,                                       !- Design Zone Air Distribution Effectiveness in Cooling Mode
  ,                                       !- Design Zone Air Distribution Effectiveness in Heating Mode
  ,                                       !- Design Zone Secondary Recirculation Fraction {dimensionless}
  ,                                       !- Design Minimum Zone Ventilation Efficiency {dimensionless}
  Coincident;                             !- Sizing Option

OS:ZoneHVAC:EquipmentList,
  {2b052504-49ee-409d-bf67-2ade2f73da92}, !- Handle
  Zone HVAC Equipment List 2,             !- Name
  {345d896b-b1f0-4d77-a304-34ae712885f5}; !- Thermal Zone

OS:AdditionalProperties,
  {147ea641-f125-4891-8304-d038fb46d53f}, !- Handle
  {345d896b-b1f0-4d77-a304-34ae712885f5}, !- Object Name
  ObjectType,                             !- Feature Name 1
  String,                                 !- Feature Data Type 1
  attic - vented;                         !- Feature Value 1

OS:Space,
  {d23a2c8f-8432-4240-9b64-9c03a17805e1}, !- Handle
  attic - vented 1,                       !- Name
  ,                                       !- Space Type Name
  ,                                       !- Default Construction Set Name
  ,                                       !- Default Schedule Set Name
  ,                                       !- Direction of Relative North {deg}
  ,                                       !- X Origin {m}
  ,                                       !- Y Origin {m}
  ,                                       !- Z Origin {m}
  ,                                       !- Building Story Name
  {345d896b-b1f0-4d77-a304-34ae712885f5}, !- Thermal Zone Name
  ,                                       !- Part of Total Floor Area
  ,                                       !- Design Specification Outdoor Air Object Name
  ,                                       !- Building Unit Name
  356.390921899745;                       !- Volume {m3}

OS:Material,
  {684ccd6d-5b8b-4a7b-9279-4f66fe8ea6b9}, !- Handle
  asphalt or fiberglass shingles,         !- Name
  Rough,                                  !- Roughness
  0.00635,                                !- Thickness {m}
  0.162714,                               !- Conductivity {W/m-K}
  1121.4,                                 !- Density {kg/m3}
  1465.45,                                !- Specific Heat {J/kg-K}
  0.9,                                    !- Thermal Absorptance
  0.85,                                   !- Solar Absorptance