
OS:Version,
  {e419ae05-4f8a-4464-994d-e6d578285f05}, !- Handle
  3.10.0;                                 !- Version Identifier

OS:SimulationControl,
  {7fddb7d4-b08c-410d-be04-ba448a85598f}, !- Handle
  ,                                       !- Do Zone Sizing Calculation
  ,                                       !- Do System Sizing Calculation
  ,                                       !- Do Plant Sizing Calculation
  No;                                     !- Run Simulation for Sizing Periods

OS:Timestep,
  {cd8c8348-6187-4ef3-a8c1-ba19750d39e2}, !- Handle
  1;                                      !- Number of Timesteps per Hour

OS:ShadowCalculation,
  {f43ef0da-0f32-4ef4-a3ad-f5fc149c6b52}, !- Handle
  PolygonClipping,                        !- Shading Calculation Method
  ,                                       !- Shading Calculation Update Frequency Method
  20,                                     !- Shading Calculation Update Frequency
  200,                                    !- Maximum Figures in Shadow Overlap Calculations
  ,                                       !- Polygon Clipping Algorithm
  512,                                    !- Pixel Counting Resolution
  ,                                       !- Sky Diffuse Modeling Algorithm
  No,                                     !- Output External Shading Calculation Results
  No,                                     !- Disable Self-Shading Within Shading Zone Groups
  No;                                     !- Disable Self-Shading From Shading Zone Groups to Other Zones

OS:SurfaceConvectionAlgorithm:Outside,
  {8a51b605-9ff8-415c-96bf-c813bdba57e9}, !- Handle
  DOE-2;                                  !- Algorithm

OS:SurfaceConvectionAlgorithm:Inside,
  {526e0612-caf7-42b2-960b-6c805d343bdb}, !- Handle
  TARP;                                   !- Algorithm

OS:ZoneCapacitanceMultiplier:ResearchSpecial,
  {1753f950-8a8b-4149-944a-1498be1fd225}, !- Handle
  7,                                      !- Temperature Capacity Multiplier
  15,                                     !- Humidity Capacity Multiplier
  ;                                       !- Carbon Dioxide Capacity Multiplier

OS:ConvergenceLimits,
  {2f765698-cf8d-44e8-a973-59c00b6d721a}, !- Handle
  0;                                      !- Minimum System Timestep {minutes}

OS:RunPeriod,
  {5cf7f0f3-1104-4821-b073-b8d6e4f10f13}, !- Handle
  Run Period 1,                           !- Name
  1,                                      !- Begin Month
  1,                                      !- Begin Day of Month
  12,                                     !- End Month
  31,                                     !- End Day of Month
  ,                                       !- Use Weather File Holidays and Special Days
  ,                                       !- Use Weather File Daylight Saving Period
  ,                                       !- Apply Weekend Holiday Rule
  ,                                       !- Use Weather File Rain Indicators
  ,                                       !- Use Weather File Snow Indicators
  ;                                       !- Number of Times Runperiod to be Repeated

OS:PerformancePrecisionTradeoffs,
  {a42be65d-9394-46ec-8c18-e9061eb51fbd}, !- Handle
  ,                                       !- Use Coil Direct Solutions
  CarrollMRT;                             !- Zone Radiant Exchange Algorithm

OS:WeatherFile,
  {3da269dc-223b-4ce7-9e54-5b647ffd1cde}, !- Handle
  Buffalo Niagara Intl Ap,                !- City
  NY,                                     !- State Province Region
  USA,                                    !- Country
  TMY3,                                   !- Data Source
  725280,                                 !- WMO Number
  42.93,                                  !- Latitude {deg}
  -78.73,                                 !- Longitude {deg}
  -5,                                     !- Time Zone {hr}
  215,                                    !- Elevation {m}
  /Users/nmoore/github/urbanopt-example-geojson-project/example_project/weather/USA_NY_Buffalo-Greater.Buffalo.Intl.AP.725280_TMY3.epw, !- Url
  6B50E0FF,                               !- Checksum
  ,                                       !- Start Date Actual Year
  Sunday;                                 !- Start Day of Week

OS:YearDescription,
  {55cfb38f-c298-4869-9d7b-e08cd23ac08b}, !- Handle
  2007,                                   !- Calendar Year
  ,                                       !- Day of Week for Start Day
  ;                                       !- Is Leap Year

OS:Site,
  {392489ae-7634-4f49-9f17-708e8111794b}, !- Handle
  Buffalo Niagara Intl Ap_NY,             !- Name
  42.93,                                  !- Latitude {deg}
  -78.73,                                 !- Longitude {deg}
  -5,                                     !- Time Zone {hr}
  215,                                    !- Elevation {m}
  Suburbs,                                !- Terrain
  Yes;                                    !- Keep Site Location Information

OS:RunPeriodControl:DaylightSavingTime,
  {eaec4754-ad5f-4e0c-a1d8-39f94fc63c22}, !- Handle
  Mar 12,                                 !- Start Date
  Nov 5;                                  !- End Date

OS:Site:GroundTemperature:Shallow,
  {467f8b09-b1a7-42ec-bde6-a4f95638d1f7}, !- Handle
  4.30207395723828,                       !- January Surface Ground Temperature {C}
  2.29327249652502,                       !- February Surface Ground Temperature {C}
  2.13240047156047,                       !- March Surface Ground Temperature {C}
  3.08567940719286,                       !- April Surface Ground Temperature {C}
  6.91256312497526,                       !- May Surface Ground Temperature {C}
  10.7216195949507,                       !- June Surface Ground Temperature {C}
  14.0238679822574,                       !- July Surface Ground Temperature {C}
  16.1157611184724,                       !- August Surface Ground Temperature {C}
  16.2934789303462,                       !- September Surface Ground Temperature {C}
  14.5920754632847,                       !- October Surface Ground Temperature {C}
  11.374036348653,                        !- November Surface Ground Temperature {C}
  7.68182621661674;                       !- December Surface Ground Temperature {C}

OS:ThermalZone,
  {d281395d-917e-427d-8aec-15febaf815c1}, !- Handle
  conditioned space,                      !- Name
  1,                                      !- Multiplier
  ,                                       !- Ceiling Height {m}
  692.06373070848,                        !- Volume {m3}
  ,                                       !- Floor Area {m2}
  ,                                       !- Zone Inside Convection Algorithm
  ,                                       !- Zone Outside Convection Algorithm
  ,                                       !- Zone Conditioning Equipment List Name
  {e2a57527-79ae-41bb-aba1-07c16b31613d}, !- Zone Air Inlet Port List
  {3e8f4ab3-f4f5-4b0f-9541-4a4c43d72753}, !- Zone Air Exhaust Port List
  {0a09767a-f239-4bbe-afbc-91b5f1c20d98}, !- Zone Air Node Name
  {431d01f4-384e-4a69-b4e7-97dcc78ed704}, !- Zone Return Air Port List
  ,                                       !- Primary Daylighting Control Name
  ,                                       !- Fraction of Zone Controlled by Primary Daylighting Control
  ,                                       !- Secondary Daylighting Control Name
  ,                                       !- Fraction of Zone Controlled by Secondary Daylighting Control
  ,                                       !- Illuminance Map Name
  ,                                       !- Group Rendering Name
  {b08e3bb1-9b53-4a9b-8ad1-3ef5d3da2a68}, !- Thermostat Name
  No;                                     !- Use Ideal Air Loads

OS:Node,
  {5cc32e17-e894-4bec-8e9e-7bc991557021}, !- Handle
  Node 1,                                 !- Name
  {0a09767a-f239-4bbe-afbc-91b5f1c20d98}, !- Inlet Port
  ;                                       !- Outlet Port

OS:Connection,
  {0a09767a-f239-4bbe-afbc-91b5f1c20d98}, !- Handle
  {d281395d-917e-427d-8aec-15febaf815c1}, !- Source Object
  11,                                     !- Outlet Port
  {5cc32e17-e894-4bec-8e9e-7bc991557021}, !- Target Object
  2;                                      !- Inlet Port

OS:PortList,
  {e2a57527-79ae-41bb-aba1-07c16b31613d}, !- Handle
  {d281395d-917e-427d-8aec-15febaf815c1}, !- HVAC Component
  {b59b7c60-3f2b-4c57-8cfa-9f120fbd5446}; !- Port 1

OS:PortList,
  {3e8f4ab3-f4f5-4b0f-9541-4a4c43d72753}, !- Handle
  {d281395d-917e-427d-8aec-15febaf815c1}; !- HVAC Component

OS:PortList,
  {431d01f4-384e-4a69-b4e7-97dcc78ed704}, !- Handle
  {d281395d-917e-427d-8aec-15febaf815c1}, !- HVAC Component
  {467c252f-ada0-47c9-9213-fcee7c464a30}; !- Port 1

OS:Sizing:Zone,
  {c20aaf88-338e-4455-8331-ae6e38edaae7}, !- Handle
  {d281395d-917e-427d-8aec-15febaf815c1}, !- Zone or ZoneList Name
  SupplyAirTemperature,                   !- Zone Cooling Design Supply Air Temperature Input Method
  14,                                     !- Zone Cooling Design Supply Air Temperature {C}
  11.11,                                  !- Zone Cooling Design Supply Air Temperature Difference {deltaC}
  SupplyAirTemperature,                   !- Zone Heating Design Supply Air Temperature Input Method
  40,                                     !- Zone Heating Design Supply Air Temperature {C}
  11.11,                                  !- Zone Heating Design Supply Air Temperature Difference {deltaC}
  0.0085,                                 !- Zone Cooling Design Supply Air Humidity Ratio {kg-H2O/kg-air}
  0.008,                                  !- Zone Heating Design Supply Air Humidity Ratio {kg-H2O/kg-air}
  ,                                       !- Zone Heating Sizing Factor
  ,                                       !- Zone Cooling Sizing Factor
  DesignDay,                              !- Cooling Design Air Flow Method
  ,                                       !- Cooling Design Air Flow Rate {m3/s}
  ,                                       !- Cooling Minimum Air Flow per Zone Floor Area {m3/s-m2}
  ,                                       !- Cooling Minimum Air Flow {m3/s}
  ,                                       !- Cooling Minimum Air Flow Fraction
  DesignDay,                              !- Heating Design Air Flow Method
  ,                                       !- Heating Design Air Flow Rate {m3/s}
  ,                                       !- Heating Maximum Air Flow per Zone Floor Area {m3/s-m2}
  ,                                       !- Heating Maximum Air Flow {m3/s}
  ,                                       !- Heating Maximum Air Flow Fraction
  No,                                     !- Account for Dedicated Outdoor Air System
  NeutralSupplyAir,                       !- Dedicated Outdoor Air System Control Strategy
  autosize,                               !- Dedicated Outdoor Air Low Setpoint Temperature for Design {C}
  autosize,                               !- Dedicated Outdoor Air High Setpoint Temperature for Design {C}
  Sensible Load Only No Latent Load,      !- Zone Load Sizing Method
  HumidityRatioDifference,                !- Zone Latent Cooling Design Supply Air Humidity Ratio Input Method
  ,                                       !- Zone Dehumidification Design Supply Air Humidity Ratio {kgWater/kgDryAir}
  0.005,                                  !- Zone Cooling Design Supply Air Humidity Ratio Difference {kgWater/kgDryAir}
  HumidityRatioDifference,                !- Zone Latent Heating Design Supply Air Humidity Ratio Input Method
  ,                                       !- Zone Humidification Design Supply Air Humidity Ratio {kgWater/kgDryAir}
  0.005,                                  !- Zone Humidification Design Supply Air Humidity Ratio Difference {kgWater/kgDryAir}
  ,                                       !- Zone Humidistat Dehumidification Set Point Schedule Name
  ,                                       !- Zone Humidistat Humidification Set Point Schedule Name
  ,                                       !- Design Zone Air Distribution Effectiveness in Cooling Mode
  ,                                       !- Design Zone Air Distribution Effectiveness in Heating Mode
  ,                                       !- Design Zone Secondary Recirculation Fraction {dimensionless}
  ,                                       !- Design Minimum Zone Ventilation Efficiency {dimensionless}
  Coincident;                             !- Sizing Option

OS:ZoneHVAC:EquipmentList,
  {65cc7deb-b68b-47ae-b8ce-1afabc0a993b}, !- Handle
  Zone HVAC Equipment List 1,             !- Name
  {d281395d-917e-427d-8aec-15febaf815c1}, !- Thermal Zone
  ,                                       !- Load Distribution Scheme
  {29aeb84c-35cb-429e-944f-ef62b1c901f5}, !- Zone Equipment 1
  1,                                      !- Zone Equipment Cooling Sequence 1
  1,                                      !- Zone Equipment Heating or No-Load Sequence 1
  {4f225370-8ed6-45a5-b46f-18db659e03de}, !- Zone Equipment Sequential Cooling Fraction Schedule Name 1
  {5d6c5d09-a3a3-4e60-ba96-9508a2165577}; !- Zone Equipment Sequential Heating Fraction Schedule Name 1

OS:AdditionalProperties,
  {71d6d834-435b-439a-9fd3-f6a4fafe5627}, !- Handle
  {d281395d-917e-427d-8aec-15febaf815c1}, !- Object Name
  ObjectType,                             !- Feature Name 1
  String,                                 !- Feature Data Type 1
  conditioned space;                      !- Feature Value 1

OS:Space,
  {dca7b9f9-9188-47f0-a40f-dce546e7339c}, !- Handle
  conditioned space 1,                    !- Name
  ,                                       !- Space Type Name
  ,                                       !- Default Construction Set Name
  ,                                       !- Default Schedule Set Name
  ,                                       !- Direction of Relative North {deg}
  ,                                       !- X Origin {m}
  ,                                       !- Y Origin {m}
  ,                                       !- Z Origin {m}
  ,                                       !- Building Story Name
  {d281395d-917e-427d-8aec-15febaf815c1}, !- Thermal Zone Name
  ,                                       !- Part of Total Floor Area
  ,                                       !- Design Specification Outdoor Air Object Name
  ,                                       !- Building Unit Name
  692.06373070848;                        !- Volume {m3}

OS:Schedule:Ruleset,
  {047c9d46-8695-4c12-84bf-2f68b8680f36}, !- Handle
  heating setpoint,                       !- Name
  {316487ae-96ed-4688-b194-750343c6b354}, !- Schedule Type Limits Name
  {c3b76755-e3f7-4c08-a60f-c34fa1cccf2a}; !- Default Day Schedule Name

OS:Schedule:Day,
  {c3b76755-e3f7-4c08-a60f-c34fa1cccf2a}, !- Handle
  heating setpoint default day,           !- Name
  {316487ae-96ed-4688-b194-750343c6b354}, !- Schedule Type Limits Name
  ,                                       !- Interpolate to Timestep
  24,                                     !- Hour 1
  0,                                      !- Minute 1
  0;                                      !- Value Until Time 1

OS:Schedule:Rule,
  {75831048-8591-4b20-abac-d5ea4339fc98}, !- Handle
  heating setpoint allday rule,           !- Name
  {047c9d46-8695-4c12-84bf-2f68b8680f36}, !- Schedule Ruleset Name
  0,                                      !- Rule Order
  {0ae408be-e43f-4662-b3f5-f492a561c5bd}, !- Day Schedule Name
  Yes,                                    !- Apply Sunday
  Yes,                                    !- Apply Monday
  Yes,                                    !- Apply Tuesday
  Yes,                                    !- Apply Wednesday
  Yes,                                    !- Apply Thursday
  Yes,                                    !- Apply Friday
  Yes,                                    !- Apply Saturday
  DateRange,                              !- Date Specification Type
  1,                                      !- Start Month
  1,                                      !- Start Day
  12,                                     !- End Month
  31;                                     !- End Day

OS:Schedule:Day,
  {0ae408be-e43f-4662-b3f5-f492a561c5bd}, !- Handle
  heating setpoint day,                   !- Name
  {316487ae-96ed-4688-b194-750343c6b354}, !- Schedule Type Limits Name
  ,                                       !- Interpolate to Timestep
  24,                                     !- Hour 1
  0,                                      !- Minute 1
  20;                                     !- Value Until Time 1

OS:Schedule:Ruleset,
  {ddf660ac-f279-47cc-be8e-3be3ca838f5d}, !- Handle
  cooling setpoint,                       !- Name
  {316487ae-96ed-4688-b194-750343c6b354}, !- Schedule Type Limits Name
  {8710b024-c436-4752-993e-ab4d74b2097c}; !- Default Day Schedule Name

OS:Schedule:Day,
  {8710b024-c436-4752-993e-ab4d74b2097c}, !- Handle
  cooling setpoint default day,           !- Name
  {316487ae-96ed-4688-b194-750343c6b354}, !- Schedule Type Limits Name
  ,                                       !- Interpolate to Timestep
  24,                                     !- Hour 1
  0,                                      !- Minute 1
  0;                                      !- Value Until Time 1

OS:Schedule:Rule,
  {b2ea8991-e778-40cc-90c9-6b1a907255ce}, !- Handle
  cooling setpoint allday rule,           !- Name
  {ddf660ac-f279-47cc-be8e-3be3ca838f5d}, !- Schedule Ruleset Name
  0,                                      !- Rule Order
  {1469b26b-5ef0-4549-a7e0-e34f615f2226}, !- Day Schedule Name
  Yes,                                    !- Apply Sunday
  Yes,                                    !- Apply Monday
  Yes,                                    !- Apply Tuesday
  Yes,                                    !- Apply Wednesday
  Yes,                                    !- Apply Thursday
  Yes,                                    !- Apply Friday
  Yes,                                    !- Apply Saturday
  DateRange,                              !- Date Specification Type
  1,                                      !- Start Month
  1,                                      !- Start Day
  12,                                     !- End Month
  31;                                     !- End Day

OS:Schedule:Day,
  {1469b26b-5ef0-4549-a7e0-e34f615f2226}, !- Handle
  cooling setpoint day,                   !- Name
  {316487ae-96ed-4688-b194-750343c6b354}, !- Schedule Type Limits Name
  ,                                       !- Interpolate to Timestep
  24,                                     !- Hour 1
  0,                                      !- Minute 1
  25.5555555555556;                       !- Value Until Time 1

OS:ThermostatSetpoint:DualSetpoint,
  {b08e3bb1-9b53-4a9b-8ad1-3ef5d3da2a68}, !- Handle
  conditioned space temperature setpoint, !- Name
  {047c9d46-8695-4c12-84bf-2f68b8680f36}, !- Heating Setpoint Temperature Schedule Name
  {ddf660ac-f279-47cc-be8e-3be3ca838f5d}, !- Cooling Setpoint Temperature Schedule Name
  0;                                      !- Temperature Difference Between Cutout And Setpoint {deltaC}

OS:ScheduleTypeLimits,
  {316487ae-96ed-4688-b194-750343c6b354}, !- Handle
  Temperature,                            !- Name
  ,                                       !- Lower Limit Value
  ,                                       !- Upper Limit Value
  Continuous,                             !- Numeric Type
  Temperature;                            !- Unit Type

OS:Surface,
  {2be6fadd-751a-4501-8bef-e55c94b4fb57}, !- Handle
  Roof1,                                  !- Name
  RoofCeiling,                            !- Surface Type
  {9a9e7dd1-c505-4833-84ee-c5c1ccece718}, !- Construction Name
  {ffecc57d-8773-4432-964e-10aed4c60149}, !- Space Name
  Outdoors,                               !- Outside Boundary Condition
  ,                                       !- Outside Boundary Condition Object
  SunExposed,                             !- Sun Exposure
  WindExposed,                            !- Wind Exposure
  ,                                       !- View Factor to Ground
  ,                                       !- Number of Vertices
  -26.9397848849634, 58.0608691618865, 2.4384, !- X,Y,Z Vertex 1 {m}
  -26.9397848849634, 46.7946431136661, 8.0715130241102, !- X,Y,Z Vertex 2 {m}
  -14.3437612381136, 46.7946431136661, 8.0715130241102, !- X,Y,Z Vertex 3 {m}
  -14.3437612381136, 58.0608691618865, 2.4384; !- X,Y,Z Vertex 4 {m}

OS:AdditionalProperties,
  {e8f2a100-db12-46a6-becf-2338b9ac88ca}, !- Handle
  {2be6fadd-751a-4501-8bef-e55c94b4fb57}, !- Object Name
  Length,                                 !- Feature Name 1
  Double,                                 !- Feature Data Type 1
  41.325536899113608,                     !- Feature Value 1
  Width,                                  !- Feature Name 2
  Double,                                 !- Feature Data Type 2
  41.325536899113601,                     !- Feature Value 2
  Azimuth,                                !- Feature Name 3
  Integer,                                !- Feature Data Type 3
  0,                                      !- Feature Value 3
  Tilt,                                   !- Feature Name 4
  Double,                                 !- Feature Data Type 4
  0.5,                                    !- Feature Value 4
  SurfaceType,                            !- Feature Name 5
  String,                                 !- Feature Data Type 5
  Roof;                                   !- Feature Value 5

OS:ThermalZone,
  {85d79350-399a-4b7f-8cc1-634cafa641aa}, !- Handle
  attic - vented,                         !- Name
  1,                                      !- Multiplier
  ,                                       !- Ceiling Height {m}
  356.390921899745,                       !- Volume {m3}
  ,                                       !- Floor Area {m2}
  ,                                       !- Zone Inside Convection Algorithm
  ,                                       !- Zone Outside Convection Algorithm
  ,                                       !- Zone Conditioning Equipment List Name
  {3c6bfe22-8113-4904-adf5-930d7ccb212a}, !- Zone Air Inlet Port List
  {d19f3da0-5b42-46b9-9661-74e798c40dd8}, !- Zone Air Exhaust Port List
  {49c3eaf6-d5b3-42b5-9f04-6b4418622705}, !- Zone Air Node Name
  {031c088f-2d61-474c-8935-88bc42836917}, !- Zone Return Air Port List
  ,                                       !- Primary Daylighting Control Name
  ,                                       !- Fraction of Zone Controlled by Primary Daylighting Control
  ,                                       !- Secondary Daylighting Control Name
  ,                                       !- Fraction of Zone Controlled by Secondary Daylighting Control
  ,                                       !- Illuminance Map Name
  ,                                       !- Group Rendering Name
  ,                                       !- Thermostat Name
  No;                                     !- Use Ideal Air Loads

OS:Node,
  {1dff160b-7c5e-46c6-952d-32ec76c91ee2}, !- Handle
  Node 2,                                 !- Name
  {49c3eaf6-d5b3-42b5-9f04-6b4418622705}, !- Inlet Port
  ;                                       !- Outlet Port

OS:Connection,
  {49c3eaf6-d5b3-42b5-9f04-6b4418622705}, !- Handle
  {85d79350-399a-4b7f-8cc1-634cafa641aa}, !- Source Object
  11,                                     !- Outlet Port
  {1dff160b-7c5e-46c6-952d-32ec76c91ee2}, !- Target Object
  2;                                      !- Inlet Port

OS:PortList,
  {3c6bfe22-8113-4904-adf5-930d7ccb212a}, !- Handle
  {85d79350-399a-4b7f-8cc1-634cafa641aa}; !- HVAC Component

OS:PortList,
  {d19f3da0-5b42-46b9-9661-74e798c40dd8}, !- Handle
  {85d79350-399a-4b7f-8cc1-634cafa641aa}; !- HVAC Component

OS:PortList,
  {031c088f-2d61-474c-8935-88bc42836917}, !- Handle
  {85d79350-399a-4b7f-8cc1-634cafa641aa}; !- HVAC Component

OS:Sizing:Zone,
  {343c49ed-4842-4f6e-aff3-4f9fa9dc97ae}, !- Handle
  {85d79350-399a-4b7f-8cc1-634cafa641aa}, !- Zone or ZoneList Name
  SupplyAirTemperature,                   !- Zone Cooling Design Supply Air Temperature Input Method
  14,                                     !- Zone Cooling Design Supply Air Temperature {C}
  11.11,                                  !- Zone Cooling Design Supply Air Temperature Difference {deltaC}
  SupplyAirTemperature,                   !- Zone Heating Design Supply Air Temperature Input Method
  40,                                     !- Zone Heating Design Supply Air Temperature {C}
  11.11,                                  !- Zone Heating Design Supply Air Temperature Difference {deltaC}
  0.0085,                                 !- Zone Cooling Design Supply Air Humidity Ratio {kg-H2O/kg-air}
  0.008,                                  !- Zone Heating Design Supply Air Humidity Ratio {kg-H2O/kg-air}
  ,                                       !- Zone Heating Sizing Factor
  ,                                       !- Zone Cooling Sizing Factor
  DesignDay,                              !- Cooling Design Air Flow Method
  ,                                       !- Cooling Design Air Flow Rate {m3/s}
  ,                                       !- Cooling Minimum Air Flow per Zone Floor Area {m3/s-m2}
  ,                                       !- Cooling Minimum Air Flow {m3/s}
  ,                                       !- Cooling Minimum Air Flow Fraction
  DesignDay,                              !- Heating Design Air Flow Method
  ,                                       !- Heating Design Air Flow Rate {m3/s}
  ,                                       !- Heating Maximum Air Flow per Zone Floor Area {m3/s-m2}
  ,                                       !- Heating Maximum Air Flow {m3/s}
  ,                                       !- Heating Maximum Air Flow Fraction
  No,                                     !- Account for Dedicated Outdoor Air System
  NeutralSupplyAir,                       !- Dedicated Outdoor Air System Control Strategy
  autosize,                               !- Dedicated Outdoor Air Low Setpoint Temperature for Design {C}
  autosize,                               !- Dedicated Outdoor Air High Setpoint Temperature for Design {C}
  Sensible Load Only No Latent Load,      !- Zone Load Sizing Method
  HumidityRatioDifference,                !- Zone Latent Cooling Design Supply Air Humidity Ratio Input Method
  ,                                       !- Zone Dehumidification Design Supply Air Humidity Ratio {kgWater/kgDryAir}
  0.005,                                  !- Zone Cooling Design Supply Air Humidity Ratio Difference {kgWater/kgDryAir}
  HumidityRatioDifference,                !- Zone Latent Heating Design Supply Air Humidity Ratio Input Method
  ,                                       !- Zone Humidification Design Supply Air Humidity Ratio {kgWater/kgDryAir}
  0.005,                                  !- Zone Humidification Design Supply Air Humidity Ratio Difference {kgWater/kgDryAir}
  ,                                       !- Zone Humidistat Dehumidification Set Point Schedule Name
  ,                                       !- Zone Humidistat Humidification Set Point Schedule Name
  ,                                       !- Design Zone Air Distribution Effectiveness in Cooling Mode
  ,                                       !- Design Zone Air Distribution Effectiveness in Heating Mode
  ,                                       !- Design Zone Secondary Recirculation Fraction {dimensionless}
  ,                                       !- Design Minimum Zone Ventilation Efficiency {dimensionless}
  Coincident;                             !- Sizing Option

OS:ZoneHVAC:EquipmentList,
  {f81a39e9-5c2e-4668-9f8d-0eed096b6804}, !- Handle
  Zone HVAC Equipment List 2,             !- Name
  {85d79350-399a-4b7f-8cc1-634cafa641aa}; !- Thermal Zone

OS:AdditionalProperties,
  {a28692ab-d1bc-40e0-abdd-c2b1e1a60dfd}, !- Handle
  {85d79350-399a-4b7f-8cc1-634cafa641aa}, !- Object Name
  ObjectType,                             !- Feature Name 1
  String,                                 !- Feature Data Type 1
  attic - vented;                         !- Feature Value 1

OS:Space,
  {ffecc57d-8773-4432-964e-10aed4c60149}, !- Handle
  attic - vented 1,                       !- Name
  ,                                       !- Space Type Name
  ,                                       !- Default Construction Set Name
  ,                                       !- Default Schedule Set Name
  ,                                       !- Direction of Relative North {deg}
  ,                                       !- X Origin {m}
  ,                                       !- Y Origin {m}
  ,                                       !- Z Origin {m}
  ,                                       !- Building Story Name
  {85d79350-399a-4b7f-8cc1-634cafa641aa}, !- Thermal Zone Name
  ,                                       !- Part of Total Floor Area
  ,                                       !- Design Specification Outdoor Air Object Name
  ,                                       !- Building Unit Name
  356.390921899745;                       !- Volume {m3}

OS:Material,
  {ecb67cdb-a109-4a3b-a9c7-0fcf03a38882}, !- Handle
  asphalt or fiberglass shingles,         !- Name
  Rough,                                  !- Roughness
  0.00635,                                !- Thickness {m}
  0.162714,                               !- Conductivity {W/m-K}
  1121.4,                                 !- Density {kg/m3}
  1465.45,                                !- Specific Heat {J/kg-K}
  0.9,                                    !- Thermal Absorptance
  0.85,                                   !- Solar Absorptance