
OS:Version,
  {946b0dd1-14fb-44ac-92a6-3e75ceaa0603}, !- Handle
  3.9.0;                                  !- Version Identifier

OS:SimulationControl,
  {0a364d7d-b3ba-45d8-9e1d-9bddfad4488c}, !- Handle
  ,                                       !- Do Zone Sizing Calculation
  ,                                       !- Do System Sizing Calculation
  ,                                       !- Do Plant Sizing Calculation
  No;                                     !- Run Simulation for Sizing Periods

OS:Timestep,
  {cbc9eb97-9ee2-45b5-b3d3-90c6084965ff}, !- Handle
  1;                                      !- Number of Timesteps per Hour

OS:ShadowCalculation,
  {727e863c-44e7-4ede-853c-764ab0d1b0f2}, !- Handle
  PolygonClipping,                        !- Shading Calculation Method
  ,                                       !- Shading Calculation Update Frequency Method
  20,                                     !- Shading Calculation Update Frequency
  200,                                    !- Maximum Figures in Shadow Overlap Calculations
  ,                                       !- Polygon Clipping Algorithm
  512,                                    !- Pixel Counting Resolution
  ,                                       !- Sky Diffuse Modeling Algorithm
  No,                                     !- Output External Shading Calculation Results
  No,                                     !- Disable Self-Shading Within Shading Zone Groups
  No;                                     !- Disable Self-Shading From Shading Zone Groups to Other Zones

OS:SurfaceConvectionAlgorithm:Outside,
  {4be064a1-0a2b-444e-b601-75d50a276c42}, !- Handle
  DOE-2;                                  !- Algorithm

OS:SurfaceConvectionAlgorithm:Inside,
  {a0bf12a9-4448-45d6-8e31-f26915755d90}, !- Handle
  TARP;                                   !- Algorithm

OS:ZoneCapacitanceMultiplier:ResearchSpecial,
  {0e8bdb5b-dde6-4ccd-9b16-db2ac07feefc}, !- Handle
  7,                                      !- Temperature Capacity Multiplier
  15,                                     !- Humidity Capacity Multiplier
  ;                                       !- Carbon Dioxide Capacity Multiplier

OS:ConvergenceLimits,
  {233f5f48-be36-4e7e-97be-8082c837ca51}, !- Handle
  0;                                      !- Minimum System Timestep {minutes}

OS:RunPeriod,
  {1b9a4c27-cf80-4afb-9442-0fac3767fed8}, !- Handle
  Run Period 1,                           !- Name
  1,                                      !- Begin Month
  1,                                      !- Begin Day of Month
  12,                                     !- End Month
  31,                                     !- End Day of Month
  ,                                       !- Use Weather File Holidays and Special Days
  ,                                       !- Use Weather File Daylight Saving Period
  ,                                       !- Apply Weekend Holiday Rule
  ,                                       !- Use Weather File Rain Indicators
  ,                                       !- Use Weather File Snow Indicators
  ;                                       !- Number of Times Runperiod to be Repeated

OS:PerformancePrecisionTradeoffs,
  {70518fc6-fea7-46fc-8200-0981428310f7}, !- Handle
  ,                                       !- Use Coil Direct Solutions
  CarrollMRT;                             !- Zone Radiant Exchange Algorithm

OS:WeatherFile,
  {5feeda86-162d-4dbe-ae9f-2f82f7f0d1e4}, !- Handle
  Buffalo Niagara Intl Ap,                !- City
  NY,                                     !- State Province Region
  USA,                                    !- Country
  TMY3,                                   !- Data Source
  725280,                                 !- WMO Number
  42.93,                                  !- Latitude {deg}
  -78.73,                                 !- Longitude {deg}
  -5,                                     !- Time Zone {hr}
  215,                                    !- Elevation {m}
  /Users/nmoore/github/urbanopt-example-geojson-project/example_project/weather/USA_NY_Buffalo-Greater.Buffalo.Intl.AP.725280_TMY3.epw, !- Url
  6B50E0FF,                               !- Checksum
  ,                                       !- Start Date Actual Year
  Sunday;                                 !- Start Day of Week

OS:YearDescription,
  {693815ea-fe61-48f9-a99f-198ddf1defb6}, !- Handle
  2007,                                   !- Calendar Year
  ,                                       !- Day of Week for Start Day
  ;                                       !- Is Leap Year

OS:Site,
  {59029c96-e9f5-482a-8bb0-0bb07d3b4531}, !- Handle
  Buffalo Niagara Intl Ap_NY,             !- Name
  42.93,                                  !- Latitude {deg}
  -78.73,                                 !- Longitude {deg}
  -5,                                     !- Time Zone {hr}
  215,                                    !- Elevation {m}
  Suburbs,                                !- Terrain
  Yes;                                    !- Keep Site Location Information

OS:RunPeriodControl:DaylightSavingTime,
  {b3238cf0-eb34-4915-b89a-384d670362ac}, !- Handle
  Mar 12,                                 !- Start Date
  Nov 5;                                  !- End Date

OS:Site:GroundTemperature:Shallow,
  {e3c77ee1-a3e6-4f2b-bdab-b0f560d80707}, !- Handle
  4.30207395723828,                       !- January Surface Ground Temperature {C}
  2.29327249652502,                       !- February Surface Ground Temperature {C}
  2.13240047156047,                       !- March Surface Ground Temperature {C}
  3.08567940719286,                       !- April Surface Ground Temperature {C}
  6.91256312497526,                       !- May Surface Ground Temperature {C}
  10.7216195949507,                       !- June Surface Ground Temperature {C}
  14.0238679822574,                       !- July Surface Ground Temperature {C}
  16.1157611184724,                       !- August Surface Ground Temperature {C}
  16.2934789303462,                       !- September Surface Ground Temperature {C}
  14.5920754632847,                       !- October Surface Ground Temperature {C}
  11.374036348653,                        !- November Surface Ground Temperature {C}
  7.68182621661674;                       !- December Surface Ground Temperature {C}

OS:ThermalZone,
  {757f7d3e-a8d8-472b-89de-e478e3eed495}, !- Handle
  conditioned space,                      !- Name
  1,                                      !- Multiplier
  ,                                       !- Ceiling Height {m}
  692.06373070848,                        !- Volume {m3}
  ,                                       !- Floor Area {m2}
  ,                                       !- Zone Inside Convection Algorithm
  ,                                       !- Zone Outside Convection Algorithm
  ,                                       !- Zone Conditioning Equipment List Name
  {9561c666-c411-4526-8d90-9456f85aa022}, !- Zone Air Inlet Port List
  {0d892ee6-67c2-4926-92c3-641b74674e93}, !- Zone Air Exhaust Port List
  {c17f83e8-af20-4b6c-812d-bbf980e258a1}, !- Zone Air Node Name
  {886d172b-2a2b-42b7-a781-e4be13ef05c7}, !- Zone Return Air Port List
  ,                                       !- Primary Daylighting Control Name
  ,                                       !- Fraction of Zone Controlled by Primary Daylighting Control
  ,                                       !- Secondary Daylighting Control Name
  ,                                       !- Fraction of Zone Controlled by Secondary Daylighting Control
  ,                                       !- Illuminance Map Name
  ,                                       !- Group Rendering Name
  {47483ed6-20cd-472f-b8c7-9692a9e2ca49}, !- Thermostat Name
  No;                                     !- Use Ideal Air Loads

OS:Node,
  {97547f89-6e6f-47d9-9319-72592f91d7ee}, !- Handle
  Node 1,                                 !- Name
  {c17f83e8-af20-4b6c-812d-bbf980e258a1}, !- Inlet Port
  ;                                       !- Outlet Port

OS:Connection,
  {c17f83e8-af20-4b6c-812d-bbf980e258a1}, !- Handle
  {757f7d3e-a8d8-472b-89de-e478e3eed495}, !- Source Object
  11,                                     !- Outlet Port
  {97547f89-6e6f-47d9-9319-72592f91d7ee}, !- Target Object
  2;                                      !- Inlet Port

OS:PortList,
  {9561c666-c411-4526-8d90-9456f85aa022}, !- Handle
  {757f7d3e-a8d8-472b-89de-e478e3eed495}, !- HVAC Component
  {d9faa763-68dc-4678-b899-6d88110ed924}; !- Port 1

OS:PortList,
  {0d892ee6-67c2-4926-92c3-641b74674e93}, !- Handle
  {757f7d3e-a8d8-472b-89de-e478e3eed495}; !- HVAC Component

OS:PortList,
  {886d172b-2a2b-42b7-a781-e4be13ef05c7}, !- Handle
  {757f7d3e-a8d8-472b-89de-e478e3eed495}, !- HVAC Component
  {1759ebcf-1e71-460a-bb96-839dce746a7c}; !- Port 1

OS:Sizing:Zone,
  {9e890655-cb83-4d51-9305-9e781dbdb6e4}, !- Handle
  {757f7d3e-a8d8-472b-89de-e478e3eed495}, !- Zone or ZoneList Name
  SupplyAirTemperature,                   !- Zone Cooling Design Supply Air Temperature Input Method
  14,                                     !- Zone Cooling Design Supply Air Temperature {C}
  11.11,                                  !- Zone Cooling Design Supply Air Temperature Difference {deltaC}
  SupplyAirTemperature,                   !- Zone Heating Design Supply Air Temperature Input Method
  40,                                     !- Zone Heating Design Supply Air Temperature {C}
  11.11,                                  !- Zone Heating Design Supply Air Temperature Difference {deltaC}
  0.0085,                                 !- Zone Cooling Design Supply Air Humidity Ratio {kg-H2O/kg-air}
  0.008,                                  !- Zone Heating Design Supply Air Humidity Ratio {kg-H2O/kg-air}
  ,                                       !- Zone Heating Sizing Factor
  ,                                       !- Zone Cooling Sizing Factor
  DesignDay,                              !- Cooling Design Air Flow Method
  ,                                       !- Cooling Design Air Flow Rate {m3/s}
  ,                                       !- Cooling Minimum Air Flow per Zone Floor Area {m3/s-m2}
  ,                                       !- Cooling Minimum Air Flow {m3/s}
  ,                                       !- Cooling Minimum Air Flow Fraction
  DesignDay,                              !- Heating Design Air Flow Method
  ,                                       !- Heating Design Air Flow Rate {m3/s}
  ,                                       !- Heating Maximum Air Flow per Zone Floor Area {m3/s-m2}
  ,                                       !- Heating Maximum Air Flow {m3/s}
  ,                                       !- Heating Maximum Air Flow Fraction
  No,                                     !- Account for Dedicated Outdoor Air System
  NeutralSupplyAir,                       !- Dedicated Outdoor Air System Control Strategy
  autosize,                               !- Dedicated Outdoor Air Low Setpoint Temperature for Design {C}
  autosize,                               !- Dedicated Outdoor Air High Setpoint Temperature for Design {C}
  Sensible Load Only No Latent Load,      !- Zone Load Sizing Method
  HumidityRatioDifference,                !- Zone Latent Cooling Design Supply Air Humidity Ratio Input Method
  ,                                       !- Zone Dehumidification Design Supply Air Humidity Ratio {kgWater/kgDryAir}
  0.005,                                  !- Zone Cooling Design Supply Air Humidity Ratio Difference {kgWater/kgDryAir}
  HumidityRatioDifference,                !- Zone Latent Heating Design Supply Air Humidity Ratio Input Method
  ,                                       !- Zone Humidification Design Supply Air Humidity Ratio {kgWater/kgDryAir}
  0.005,                                  !- Zone Humidification Design Supply Air Humidity Ratio Difference {kgWater/kgDryAir}
  ,                                       !- Zone Humidistat Dehumidification Set Point Schedule Name
  ,                                       !- Zone Humidistat Humidification Set Point Schedule Name
  ,                                       !- Design Zone Air Distribution Effectiveness in Cooling Mode
  ,                                       !- Design Zone Air Distribution Effectiveness in Heating Mode
  ,                                       !- Design Zone Secondary Recirculation Fraction {dimensionless}
  ,                                       !- Design Minimum Zone Ventilation Efficiency {dimensionless}
  Coincident;                             !- Sizing Option

OS:ZoneHVAC:EquipmentList,
  {553ba659-f79d-4829-8ff8-2a8c4afe5d4f}, !- Handle
  Zone HVAC Equipment List 1,             !- Name
  {757f7d3e-a8d8-472b-89de-e478e3eed495}, !- Thermal Zone
  ,                                       !- Load Distribution Scheme
  {cd25227f-560b-440d-a5c7-517b728e96d0}, !- Zone Equipment 1
  1,                                      !- Zone Equipment Cooling Sequence 1
  1,                                      !- Zone Equipment Heating or No-Load Sequence 1
  {5f152067-d965-45cc-bb01-1c4fb041d4e7}, !- Zone Equipment Sequential Cooling Fraction Schedule Name 1
  {ff74fe55-919c-43da-afde-d161491fd39d}; !- Zone Equipment Sequential Heating Fraction Schedule Name 1

OS:AdditionalProperties,
  {6d69ec5c-e0c8-4f90-ad4e-9096b70901df}, !- Handle
  {757f7d3e-a8d8-472b-89de-e478e3eed495}, !- Object Name
  ObjectType,                             !- Feature Name 1
  String,                                 !- Feature Data Type 1
  conditioned space;                      !- Feature Value 1

OS:Space,
  {229bb567-9be3-42c8-80be-fdb83773fc92}, !- Handle
  conditioned space 1,                    !- Name
  ,                                       !- Space Type Name
  ,                                       !- Default Construction Set Name
  ,                                       !- Default Schedule Set Name
  ,                                       !- Direction of Relative North {deg}
  ,                                       !- X Origin {m}
  ,                                       !- Y Origin {m}
  ,                                       !- Z Origin {m}
  ,                                       !- Building Story Name
  {757f7d3e-a8d8-472b-89de-e478e3eed495}, !- Thermal Zone Name
  ,                                       !- Part of Total Floor Area
  ,                                       !- Design Specification Outdoor Air Object Name
  ,                                       !- Building Unit Name
  692.06373070848;                        !- Volume {m3}

OS:Schedule:Ruleset,
  {9736574f-dd29-4e00-b6fc-f78036a9fd61}, !- Handle
  heating setpoint,                       !- Name
  {7794abb4-ea9f-4604-9645-e4b31db908ca}, !- Schedule Type Limits Name
  {af7585c5-736a-4e0f-9d4b-f50192f39f31}; !- Default Day Schedule Name

OS:Schedule:Day,
  {af7585c5-736a-4e0f-9d4b-f50192f39f31}, !- Handle
  heating setpoint default day,           !- Name
  {7794abb4-ea9f-4604-9645-e4b31db908ca}, !- Schedule Type Limits Name
  ,                                       !- Interpolate to Timestep
  24,                                     !- Hour 1
  0,                                      !- Minute 1
  0;                                      !- Value Until Time 1

OS:Schedule:Rule,
  {a66e568a-1297-40f4-a4db-6df16e181f24}, !- Handle
  heating setpoint allday rule,           !- Name
  {9736574f-dd29-4e00-b6fc-f78036a9fd61}, !- Schedule Ruleset Name
  0,                                      !- Rule Order
  {737bfbf9-f227-4f1d-912b-ed537910d186}, !- Day Schedule Name
  Yes,                                    !- Apply Sunday
  Yes,                                    !- Apply Monday
  Yes,                                    !- Apply Tuesday
  Yes,                                    !- Apply Wednesday
  Yes,                                    !- Apply Thursday
  Yes,                                    !- Apply Friday
  Yes,                                    !- Apply Saturday
  DateRange,                              !- Date Specification Type
  1,                                      !- Start Month
  1,                                      !- Start Day
  12,                                     !- End Month
  31;                                     !- End Day

OS:Schedule:Day,
  {737bfbf9-f227-4f1d-912b-ed537910d186}, !- Handle
  heating setpoint day,                   !- Name
  {7794abb4-ea9f-4604-9645-e4b31db908ca}, !- Schedule Type Limits Name
  ,                                       !- Interpolate to Timestep
  24,                                     !- Hour 1
  0,                                      !- Minute 1
  20;                                     !- Value Until Time 1

OS:Schedule:Ruleset,
  {c958f074-d498-4f76-9de6-c1e9f32b248c}, !- Handle
  cooling setpoint,                       !- Name
  {7794abb4-ea9f-4604-9645-e4b31db908ca}, !- Schedule Type Limits Name
  {b3dc2017-4fd0-4274-9fad-d37d5f63a5d7}; !- Default Day Schedule Name

OS:Schedule:Day,
  {b3dc2017-4fd0-4274-9fad-d37d5f63a5d7}, !- Handle
  cooling setpoint default day,           !- Name
  {7794abb4-ea9f-4604-9645-e4b31db908ca}, !- Schedule Type Limits Name
  ,                                       !- Interpolate to Timestep
  24,                                     !- Hour 1
  0,                                      !- Minute 1
  0;                                      !- Value Until Time 1

OS:Schedule:Rule,
  {4b9ec23e-0c9e-411c-bfad-30fe5600b9bc}, !- Handle
  cooling setpoint allday rule,           !- Name
  {c958f074-d498-4f76-9de6-c1e9f32b248c}, !- Schedule Ruleset Name
  0,                                      !- Rule Order
  {c93ae7e2-fa2d-4c8b-b39f-783eafa5a574}, !- Day Schedule Name
  Yes,                                    !- Apply Sunday
  Yes,                                    !- Apply Monday
  Yes,                                    !- Apply Tuesday
  Yes,                                    !- Apply Wednesday
  Yes,                                    !- Apply Thursday
  Yes,                                    !- Apply Friday
  Yes,                                    !- Apply Saturday
  DateRange,                              !- Date Specification Type
  1,                                      !- Start Month
  1,                                      !- Start Day
  12,                                     !- End Month
  31;                                     !- End Day

OS:Schedule:Day,
  {c93ae7e2-fa2d-4c8b-b39f-783eafa5a574}, !- Handle
  cooling setpoint day,                   !- Name
  {7794abb4-ea9f-4604-9645-e4b31db908ca}, !- Schedule Type Limits Name
  ,                                       !- Interpolate to Timestep
  24,                                     !- Hour 1
  0,                                      !- Minute 1
  25.5555555555556;                       !- Value Until Time 1

OS:ThermostatSetpoint:DualSetpoint,
  {47483ed6-20cd-472f-b8c7-9692a9e2ca49}, !- Handle
  conditioned space temperature setpoint, !- Name
  {9736574f-dd29-4e00-b6fc-f78036a9fd61}, !- Heating Setpoint Temperature Schedule Name
  {c958f074-d498-4f76-9de6-c1e9f32b248c}, !- Cooling Setpoint Temperature Schedule Name
  0;                                      !- Temperature Difference Between Cutout And Setpoint {deltaC}

OS:ScheduleTypeLimits,
  {7794abb4-ea9f-4604-9645-e4b31db908ca}, !- Handle
  Temperature,                            !- Name
  ,                                       !- Lower Limit Value
  ,                                       !- Upper Limit Value
  Continuous,                             !- Numeric Type
  Temperature;                            !- Unit Type

OS:Surface,
  {0c5221d1-1fe2-4888-a955-ec6191476c19}, !- Handle
  Roof1,                                  !- Name
  RoofCeiling,                            !- Surface Type
  {683fe698-773b-4ace-a09c-6dd3b1fc57b4}, !- Construction Name
  {d101b34a-e5d6-4bca-bb1f-8e7be5e232a9}, !- Space Name
  Outdoors,                               !- Outside Boundary Condition
  ,                                       !- Outside Boundary Condition Object
  SunExposed,                             !- Sun Exposure
  WindExposed,                            !- Wind Exposure
  ,                                       !- View Factor to Ground
  ,                                       !- Number of Vertices
  -26.9397848849634, 58.0608691618865, 2.4384, !- X,Y,Z Vertex 1 {m}
  -26.9397848849634, 46.7946431136661, 8.0715130241102, !- X,Y,Z Vertex 2 {m}
  -14.3437612381136, 46.7946431136661, 8.0715130241102, !- X,Y,Z Vertex 3 {m}
  -14.3437612381136, 58.0608691618865, 2.4384; !- X,Y,Z Vertex 4 {m}

OS:AdditionalProperties,
  {e24a2f91-3dee-4d39-8b80-bf5b7918aee1}, !- Handle
  {0c5221d1-1fe2-4888-a955-ec6191476c19}, !- Object Name
  Length,                                 !- Feature Name 1
  Double,                                 !- Feature Data Type 1
  41.325536899113608,                     !- Feature Value 1
  Width,                                  !- Feature Name 2
  Double,                                 !- Feature Data Type 2
  41.325536899113601,                     !- Feature Value 2
  Azimuth,                                !- Feature Name 3
  Integer,                                !- Feature Data Type 3
  0,                                      !- Feature Value 3
  Tilt,                                   !- Feature Name 4
  Double,                                 !- Feature Data Type 4
  0.5,                                    !- Feature Value 4
  SurfaceType,                            !- Feature Name 5
  String,                                 !- Feature Data Type 5
  Roof;                                   !- Feature Value 5

OS:ThermalZone,
  {203ad15d-8aab-487f-ac9c-310e3aab99cd}, !- Handle
  attic - vented,                         !- Name
  1,                                      !- Multiplier
  ,                                       !- Ceiling Height {m}
  356.389957095237,                       !- Volume {m3}
  ,                                       !- Floor Area {m2}
  ,                                       !- Zone Inside Convection Algorithm
  ,                                       !- Zone Outside Convection Algorithm
  ,                                       !- Zone Conditioning Equipment List Name
  {29f9c083-7fb4-475a-95ba-102818d99201}, !- Zone Air Inlet Port List
  {61b0ea8f-4044-49ea-85e1-aca54ccc79ab}, !- Zone Air Exhaust Port List
  {944575b6-56c6-484e-b77c-6e9397e0d864}, !- Zone Air Node Name
  {c259fec2-6b04-436d-a9ae-7217a12b23fb}, !- Zone Return Air Port List
  ,                                       !- Primary Daylighting Control Name
  ,                                       !- Fraction of Zone Controlled by Primary Daylighting Control
  ,                                       !- Secondary Daylighting Control Name
  ,                                       !- Fraction of Zone Controlled by Secondary Daylighting Control
  ,                                       !- Illuminance Map Name
  ,                                       !- Group Rendering Name
  ,                                       !- Thermostat Name
  No;                                     !- Use Ideal Air Loads

OS:Node,
  {d7c790b9-b935-4340-bfb2-3fab8a5e95eb}, !- Handle
  Node 2,                                 !- Name
  {944575b6-56c6-484e-b77c-6e9397e0d864}, !- Inlet Port
  ;                                       !- Outlet Port

OS:Connection,
  {944575b6-56c6-484e-b77c-6e9397e0d864}, !- Handle
  {203ad15d-8aab-487f-ac9c-310e3aab99cd}, !- Source Object
  11,                                     !- Outlet Port
  {d7c790b9-b935-4340-bfb2-3fab8a5e95eb}, !- Target Object
  2;                                      !- Inlet Port

OS:PortList,
  {29f9c083-7fb4-475a-95ba-102818d99201}, !- Handle
  {203ad15d-8aab-487f-ac9c-310e3aab99cd}; !- HVAC Component

OS:PortList,
  {61b0ea8f-4044-49ea-85e1-aca54ccc79ab}, !- Handle
  {203ad15d-8aab-487f-ac9c-310e3aab99cd}; !- HVAC Component

OS:PortList,
  {c259fec2-6b04-436d-a9ae-7217a12b23fb}, !- Handle
  {203ad15d-8aab-487f-ac9c-310e3aab99cd}; !- HVAC Component

OS:Sizing:Zone,
  {943ccefc-ba3c-409a-95df-3289b5382910}, !- Handle
  {203ad15d-8aab-487f-ac9c-310e3aab99cd}, !- Zone or ZoneList Name
  SupplyAirTemperature,                   !- Zone Cooling Design Supply Air Temperature Input Method
  14,                                     !- Zone Cooling Design Supply Air Temperature {C}
  11.11,                                  !- Zone Cooling Design Supply Air Temperature Difference {deltaC}
  SupplyAirTemperature,                   !- Zone Heating Design Supply Air Temperature Input Method
  40,                                     !- Zone Heating Design Supply Air Temperature {C}
  11.11,                                  !- Zone Heating Design Supply Air Temperature Difference {deltaC}
  0.0085,                                 !- Zone Cooling Design Supply Air Humidity Ratio {kg-H2O/kg-air}
  0.008,                                  !- Zone Heating Design Supply Air Humidity Ratio {kg-H2O/kg-air}
  ,                                       !- Zone Heating Sizing Factor
  ,                                       !- Zone Cooling Sizing Factor
  DesignDay,                              !- Cooling Design Air Flow Method
  ,                                       !- Cooling Design Air Flow Rate {m3/s}
  ,                                       !- Cooling Minimum Air Flow per Zone Floor Area {m3/s-m2}
  ,                                       !- Cooling Minimum Air Flow {m3/s}
  ,                                       !- Cooling Minimum Air Flow Fraction
  DesignDay,                              !- Heating Design Air Flow Method
  ,                                       !- Heating Design Air Flow Rate {m3/s}
  ,                                       !- Heating Maximum Air Flow per Zone Floor Area {m3/s-m2}
  ,                                       !- Heating Maximum Air Flow {m3/s}
  ,                                       !- Heating Maximum Air Flow Fraction
  No,                                     !- Account for Dedicated Outdoor Air System
  NeutralSupplyAir,                       !- Dedicated Outdoor Air System Control Strategy
  autosize,                               !- Dedicated Outdoor Air Low Setpoint Temperature for Design {C}
  autosize,                               !- Dedicated Outdoor Air High Setpoint Temperature for Design {C}
  Sensible Load Only No Latent Load,      !- Zone Load Sizing Method
  HumidityRatioDifference,                !- Zone Latent Cooling Design Supply Air Humidity Ratio Input Method
  ,                                       !- Zone Dehumidification Design Supply Air Humidity Ratio {kgWater/kgDryAir}
  0.005,                                  !- Zone Cooling Design Supply Air Humidity Ratio Difference {kgWater/kgDryAir}
  HumidityRatioDifference,                !- Zone Latent Heating Design Supply Air Humidity Ratio Input Method
  ,                                       !- Zone Humidification Design Supply Air Humidity Ratio {kgWater/kgDryAir}
  0.005,                                  !- Zone Humidification Design Supply Air Humidity Ratio Difference {kgWater/kgDryAir}
  ,                                       !- Zone Humidistat Dehumidification Set Point Schedule Name
  ,                                       !- Zone Humidistat Humidification Set Point Schedule Name
  ,                                       !- Design Zone Air Distribution Effectiveness in Cooling Mode
  ,                                       !- Design Zone Air Distribution Effectiveness in Heating Mode
  ,                                       !- Design Zone Secondary Recirculation Fraction {dimensionless}
  ,                                       !- Design Minimum Zone Ventilation Efficiency {dimensionless}
  Coincident;                             !- Sizing Option

OS:ZoneHVAC:EquipmentList,
  {d03635e3-0679-482d-84ec-408d59808755}, !- Handle
  Zone HVAC Equipment List 2,             !- Name
  {203ad15d-8aab-487f-ac9c-310e3aab99cd}; !- Thermal Zone

OS:AdditionalProperties,
  {51a67549-661c-41fb-bd03-af3665a2b2dd}, !- Handle
  {203ad15d-8aab-487f-ac9c-310e3aab99cd}, !- Object Name
  ObjectType,                             !- Feature Name 1
  String,                                 !- Feature Data Type 1
  attic - vented;                         !- Feature Value 1

OS:Space,
  {d101b34a-e5d6-4bca-bb1f-8e7be5e232a9}, !- Handle
  attic - vented 1,                       !- Name
  ,                                       !- Space Type Name
  ,                                       !- Default Construction Set Name
  ,                                       !- Default Schedule Set Name
  ,                                       !- Direction of Relative North {deg}
  ,                                       !- X Origin {m}
  ,                                       !- Y Origin {m}
  ,                                       !- Z Origin {m}
  ,                                       !- Building Story Name
  {203ad15d-8aab-487f-ac9c-310e3aab99cd}, !- Thermal Zone Name
  ,                                       !- Part of Total Floor Area
  ,                                       !- Design Specification Outdoor Air Object Name
  ,                                       !- Building Unit Name
  356.389957095237;                       !- Volume {m3}

OS:Material,
  {3c5c8410-d9c6-4ef9-93d9-48d35a63fd8a}, !- Handle
  asphalt or fiberglass shingles,         !- Name
  Rough,                                  !- Roughness
  0.00635,                                !- Thickness {m}
  0.162714,                               !- Conductivity {W/m-K}
  1121.4,                                 !- Density {kg/m3}
  1465.45,                                !- Specific Heat {J/kg-K}
  0.9,                                    !- Thermal Absorptance
  0.85,                                   !- Solar Absorptance