
OS:Version,
  {eebbd800-8099-467b-9a67-fe12d4b4b331}, !- Handle
  3.9.0;                                  !- Version Identifier

OS:SimulationControl,
  {2d21c669-519e-4dc6-83ae-3b927d2c944d}, !- Handle
  ,                                       !- Do Zone Sizing Calculation
  ,                                       !- Do System Sizing Calculation
  ,                                       !- Do Plant Sizing Calculation
  No;                                     !- Run Simulation for Sizing Periods

OS:Timestep,
  {c71e9930-b904-49da-ab5e-34831954b692}, !- Handle
  1;                                      !- Number of Timesteps per Hour

OS:ShadowCalculation,
  {b9ee1f25-1cb1-473e-b510-476df5ffc7c6}, !- Handle
  PolygonClipping,                        !- Shading Calculation Method
  ,                                       !- Shading Calculation Update Frequency Method
  20,                                     !- Shading Calculation Update Frequency
  200,                                    !- Maximum Figures in Shadow Overlap Calculations
  ,                                       !- Polygon Clipping Algorithm
  512,                                    !- Pixel Counting Resolution
  ,                                       !- Sky Diffuse Modeling Algorithm
  No,                                     !- Output External Shading Calculation Results
  No,                                     !- Disable Self-Shading Within Shading Zone Groups
  No;                                     !- Disable Self-Shading From Shading Zone Groups to Other Zones

OS:SurfaceConvectionAlgorithm:Outside,
  {b79de7da-a0f8-4b57-8670-0b49b79b533c}, !- Handle
  DOE-2;                                  !- Algorithm

OS:SurfaceConvectionAlgorithm:Inside,
  {cb52d530-60d4-45ef-b1c7-2ba8b699a1a2}, !- Handle
  TARP;                                   !- Algorithm

OS:ZoneCapacitanceMultiplier:ResearchSpecial,
  {6b3f35a8-5f17-4538-949d-89513b2293f7}, !- Handle
  7,                                      !- Temperature Capacity Multiplier
  15,                                     !- Humidity Capacity Multiplier
  ;                                       !- Carbon Dioxide Capacity Multiplier

OS:ConvergenceLimits,
  {ad1f8bd6-d5e5-4f1d-beff-0d4355ab51fb}, !- Handle
  0;                                      !- Minimum System Timestep {minutes}

OS:RunPeriod,
  {8058f0cc-fbd3-4ed0-ba6a-db6580bc6066}, !- Handle
  Run Period 1,                           !- Name
  1,                                      !- Begin Month
  1,                                      !- Begin Day of Month
  12,                                     !- End Month
  31,                                     !- End Day of Month
  ,                                       !- Use Weather File Holidays and Special Days
  ,                                       !- Use Weather File Daylight Saving Period
  ,                                       !- Apply Weekend Holiday Rule
  ,                                       !- Use Weather File Rain Indicators
  ,                                       !- Use Weather File Snow Indicators
  ;                                       !- Number of Times Runperiod to be Repeated

OS:PerformancePrecisionTradeoffs,
  {8093c30c-5146-4da0-8279-8293cacdcd93}, !- Handle
  ,                                       !- Use Coil Direct Solutions
  CarrollMRT;                             !- Zone Radiant Exchange Algorithm

OS:WeatherFile,
  {5bacef0a-30f1-4cfc-a4c9-4ebe3ffb3c99}, !- Handle
  Buffalo Niagara Intl Ap,                !- City
  NY,                                     !- State Province Region
  USA,                                    !- Country
  TMY3,                                   !- Data Source
  725280,                                 !- WMO Number
  42.93,                                  !- Latitude {deg}
  -78.73,                                 !- Longitude {deg}
  -5,                                     !- Time Zone {hr}
  215,                                    !- Elevation {m}
  /Users/nmoore/github/urbanopt-example-geojson-project/example_project/weather/USA_NY_Buffalo-Greater.Buffalo.Intl.AP.725280_TMY3.epw, !- Url
  6B50E0FF,                               !- Checksum
  ,                                       !- Start Date Actual Year
  Sunday;                                 !- Start Day of Week

OS:YearDescription,
  {61420947-be42-4485-92e8-364814c85ecc}, !- Handle
  2007,                                   !- Calendar Year
  ,                                       !- Day of Week for Start Day
  ;                                       !- Is Leap Year

OS:Site,
  {909a8247-f824-4247-8e02-d3406ba3370b}, !- Handle
  Buffalo Niagara Intl Ap_NY,             !- Name
  42.93,                                  !- Latitude {deg}
  -78.73,                                 !- Longitude {deg}
  -5,                                     !- Time Zone {hr}
  215,                                    !- Elevation {m}
  Suburbs,                                !- Terrain
  Yes;                                    !- Keep Site Location Information

OS:RunPeriodControl:DaylightSavingTime,
  {34845379-60bc-4232-9091-5b5d69970aaa}, !- Handle
  Mar 12,                                 !- Start Date
  Nov 5;                                  !- End Date

OS:Site:GroundTemperature:Shallow,
  {b08fe17e-987a-400c-a319-62d8ec7a9b34}, !- Handle
  4.30207395723828,                       !- January Surface Ground Temperature {C}
  2.29327249652502,                       !- February Surface Ground Temperature {C}
  2.13240047156047,                       !- March Surface Ground Temperature {C}
  3.08567940719286,                       !- April Surface Ground Temperature {C}
  6.91256312497526,                       !- May Surface Ground Temperature {C}
  10.7216195949507,                       !- June Surface Ground Temperature {C}
  14.0238679822574,                       !- July Surface Ground Temperature {C}
  16.1157611184724,                       !- August Surface Ground Temperature {C}
  16.2934789303462,                       !- September Surface Ground Temperature {C}
  14.5920754632847,                       !- October Surface Ground Temperature {C}
  11.374036348653,                        !- November Surface Ground Temperature {C}
  7.68182621661674;                       !- December Surface Ground Temperature {C}

OS:ThermalZone,
  {94426d40-3274-41e7-8f83-93576fdca815}, !- Handle
  conditioned space,                      !- Name
  1,                                      !- Multiplier
  ,                                       !- Ceiling Height {m}
  692.06373070848,                        !- Volume {m3}
  ,                                       !- Floor Area {m2}
  ,                                       !- Zone Inside Convection Algorithm
  ,                                       !- Zone Outside Convection Algorithm
  ,                                       !- Zone Conditioning Equipment List Name
  {5c351eb5-46e6-4c97-9fef-50e46fc3c8af}, !- Zone Air Inlet Port List
  {c575a6a7-01f2-42ef-b1c1-cfbdc562758c}, !- Zone Air Exhaust Port List
  {7ed16117-3fa5-4d62-9b1e-d59162430a14}, !- Zone Air Node Name
  {dd9ad3f2-2e15-44b2-b511-48a0fa28d16f}, !- Zone Return Air Port List
  ,                                       !- Primary Daylighting Control Name
  ,                                       !- Fraction of Zone Controlled by Primary Daylighting Control
  ,                                       !- Secondary Daylighting Control Name
  ,                                       !- Fraction of Zone Controlled by Secondary Daylighting Control
  ,                                       !- Illuminance Map Name
  ,                                       !- Group Rendering Name
  {49bef2b8-c6d7-4b3d-8b83-6c9b7160dd83}, !- Thermostat Name
  No;                                     !- Use Ideal Air Loads

OS:Node,
  {0acfcd47-f06b-499a-a040-547b022ec972}, !- Handle
  Node 1,                                 !- Name
  {7ed16117-3fa5-4d62-9b1e-d59162430a14}, !- Inlet Port
  ;                                       !- Outlet Port

OS:Connection,
  {7ed16117-3fa5-4d62-9b1e-d59162430a14}, !- Handle
  {94426d40-3274-41e7-8f83-93576fdca815}, !- Source Object
  11,                                     !- Outlet Port
  {0acfcd47-f06b-499a-a040-547b022ec972}, !- Target Object
  2;                                      !- Inlet Port

OS:PortList,
  {5c351eb5-46e6-4c97-9fef-50e46fc3c8af}, !- Handle
  {94426d40-3274-41e7-8f83-93576fdca815}, !- HVAC Component
  {d894ace5-eab4-4243-8f2d-39793332e96f}; !- Port 1

OS:PortList,
  {c575a6a7-01f2-42ef-b1c1-cfbdc562758c}, !- Handle
  {94426d40-3274-41e7-8f83-93576fdca815}; !- HVAC Component

OS:PortList,
  {dd9ad3f2-2e15-44b2-b511-48a0fa28d16f}, !- Handle
  {94426d40-3274-41e7-8f83-93576fdca815}, !- HVAC Component
  {c455a55a-5f8a-4674-bc5e-704f8051ad64}; !- Port 1

OS:Sizing:Zone,
  {2d9e6be3-5564-43f1-9894-6ff503094776}, !- Handle
  {94426d40-3274-41e7-8f83-93576fdca815}, !- Zone or ZoneList Name
  SupplyAirTemperature,                   !- Zone Cooling Design Supply Air Temperature Input Method
  14,                                     !- Zone Cooling Design Supply Air Temperature {C}
  11.11,                                  !- Zone Cooling Design Supply Air Temperature Difference {deltaC}
  SupplyAirTemperature,                   !- Zone Heating Design Supply Air Temperature Input Method
  40,                                     !- Zone Heating Design Supply Air Temperature {C}
  11.11,                                  !- Zone Heating Design Supply Air Temperature Difference {deltaC}
  0.0085,                                 !- Zone Cooling Design Supply Air Humidity Ratio {kg-H2O/kg-air}
  0.008,                                  !- Zone Heating Design Supply Air Humidity Ratio {kg-H2O/kg-air}
  ,                                       !- Zone Heating Sizing Factor
  ,                                       !- Zone Cooling Sizing Factor
  DesignDay,                              !- Cooling Design Air Flow Method
  ,                                       !- Cooling Design Air Flow Rate {m3/s}
  ,                                       !- Cooling Minimum Air Flow per Zone Floor Area {m3/s-m2}
  ,                                       !- Cooling Minimum Air Flow {m3/s}
  ,                                       !- Cooling Minimum Air Flow Fraction
  DesignDay,                              !- Heating Design Air Flow Method
  ,                                       !- Heating Design Air Flow Rate {m3/s}
  ,                                       !- Heating Maximum Air Flow per Zone Floor Area {m3/s-m2}
  ,                                       !- Heating Maximum Air Flow {m3/s}
  ,                                       !- Heating Maximum Air Flow Fraction
  No,                                     !- Account for Dedicated Outdoor Air System
  NeutralSupplyAir,                       !- Dedicated Outdoor Air System Control Strategy
  autosize,                               !- Dedicated Outdoor Air Low Setpoint Temperature for Design {C}
  autosize,                               !- Dedicated Outdoor Air High Setpoint Temperature for Design {C}
  Sensible Load Only No Latent Load,      !- Zone Load Sizing Method
  HumidityRatioDifference,                !- Zone Latent Cooling Design Supply Air Humidity Ratio Input Method
  ,                                       !- Zone Dehumidification Design Supply Air Humidity Ratio {kgWater/kgDryAir}
  0.005,                                  !- Zone Cooling Design Supply Air Humidity Ratio Difference {kgWater/kgDryAir}
  HumidityRatioDifference,                !- Zone Latent Heating Design Supply Air Humidity Ratio Input Method
  ,                                       !- Zone Humidification Design Supply Air Humidity Ratio {kgWater/kgDryAir}
  0.005,                                  !- Zone Humidification Design Supply Air Humidity Ratio Difference {kgWater/kgDryAir}
  ,                                       !- Zone Humidistat Dehumidification Set Point Schedule Name
  ,                                       !- Zone Humidistat Humidification Set Point Schedule Name
  ,                                       !- Design Zone Air Distribution Effectiveness in Cooling Mode
  ,                                       !- Design Zone Air Distribution Effectiveness in Heating Mode
  ,                                       !- Design Zone Secondary Recirculation Fraction {dimensionless}
  ,                                       !- Design Minimum Zone Ventilation Efficiency {dimensionless}
  Coincident;                             !- Sizing Option

OS:ZoneHVAC:EquipmentList,
  {64a5b46d-a186-4c06-9e45-8f897a7e6e33}, !- Handle
  Zone HVAC Equipment List 1,             !- Name
  {94426d40-3274-41e7-8f83-93576fdca815}, !- Thermal Zone
  ,                                       !- Load Distribution Scheme
  {f339c203-45f0-448f-8724-f90b3e2a71c1}, !- Zone Equipment 1
  1,                                      !- Zone Equipment Cooling Sequence 1
  1,                                      !- Zone Equipment Heating or No-Load Sequence 1
  {d51500fe-b350-4f20-9f52-6dbf865452d3}, !- Zone Equipment Sequential Cooling Fraction Schedule Name 1
  {b34bb2dd-9e05-4f4e-a0c1-bd4a812c1857}; !- Zone Equipment Sequential Heating Fraction Schedule Name 1

OS:AdditionalProperties,
  {dc01c847-b7f9-4b4a-ad1b-a7fcedd78c5e}, !- Handle
  {94426d40-3274-41e7-8f83-93576fdca815}, !- Object Name
  ObjectType,                             !- Feature Name 1
  String,                                 !- Feature Data Type 1
  conditioned space;                      !- Feature Value 1

OS:Space,
  {1e14d40c-7775-4757-8dad-eac4ff0ffa07}, !- Handle
  conditioned space 1,                    !- Name
  ,                                       !- Space Type Name
  ,                                       !- Default Construction Set Name
  ,                                       !- Default Schedule Set Name
  ,                                       !- Direction of Relative North {deg}
  ,                                       !- X Origin {m}
  ,                                       !- Y Origin {m}
  ,                                       !- Z Origin {m}
  ,                                       !- Building Story Name
  {94426d40-3274-41e7-8f83-93576fdca815}, !- Thermal Zone Name
  ,                                       !- Part of Total Floor Area
  ,                                       !- Design Specification Outdoor Air Object Name
  ,                                       !- Building Unit Name
  692.06373070848;                        !- Volume {m3}

OS:Schedule:Ruleset,
  {6708b715-debb-4abd-ad15-ba968bb4f8ec}, !- Handle
  heating setpoint,                       !- Name
  {fc1266cc-402b-4b68-964b-42c6bfd7d360}, !- Schedule Type Limits Name
  {55c384c7-f44f-42c1-bdc8-01694cd4b3e9}; !- Default Day Schedule Name

OS:Schedule:Day,
  {55c384c7-f44f-42c1-bdc8-01694cd4b3e9}, !- Handle
  heating setpoint default day,           !- Name
  {fc1266cc-402b-4b68-964b-42c6bfd7d360}, !- Schedule Type Limits Name
  ,                                       !- Interpolate to Timestep
  24,                                     !- Hour 1
  0,                                      !- Minute 1
  0;                                      !- Value Until Time 1

OS:Schedule:Rule,
  {854c57b5-a2f7-4f58-b2c3-862040dc209a}, !- Handle
  heating setpoint allday rule,           !- Name
  {6708b715-debb-4abd-ad15-ba968bb4f8ec}, !- Schedule Ruleset Name
  0,                                      !- Rule Order
  {552b6cf4-17b8-4390-8b61-3da9d4e8c31b}, !- Day Schedule Name
  Yes,                                    !- Apply Sunday
  Yes,                                    !- Apply Monday
  Yes,                                    !- Apply Tuesday
  Yes,                                    !- Apply Wednesday
  Yes,                                    !- Apply Thursday
  Yes,                                    !- Apply Friday
  Yes,                                    !- Apply Saturday
  DateRange,                              !- Date Specification Type
  1,                                      !- Start Month
  1,                                      !- Start Day
  12,                                     !- End Month
  31;                                     !- End Day

OS:Schedule:Day,
  {552b6cf4-17b8-4390-8b61-3da9d4e8c31b}, !- Handle
  heating setpoint day,                   !- Name
  {fc1266cc-402b-4b68-964b-42c6bfd7d360}, !- Schedule Type Limits Name
  ,                                       !- Interpolate to Timestep
  24,                                     !- Hour 1
  0,                                      !- Minute 1
  20;                                     !- Value Until Time 1

OS:Schedule:Ruleset,
  {72f6f316-676b-4705-9da5-6822f75a89df}, !- Handle
  cooling setpoint,                       !- Name
  {fc1266cc-402b-4b68-964b-42c6bfd7d360}, !- Schedule Type Limits Name
  {784da2f6-3418-4c5e-a86d-fdcc89db7cda}; !- Default Day Schedule Name

OS:Schedule:Day,
  {784da2f6-3418-4c5e-a86d-fdcc89db7cda}, !- Handle
  cooling setpoint default day,           !- Name
  {fc1266cc-402b-4b68-964b-42c6bfd7d360}, !- Schedule Type Limits Name
  ,                                       !- Interpolate to Timestep
  24,                                     !- Hour 1
  0,                                      !- Minute 1
  0;                                      !- Value Until Time 1

OS:Schedule:Rule,
  {dbc0d1a4-0352-472d-91c6-0dd666f1f538}, !- Handle
  cooling setpoint allday rule,           !- Name
  {72f6f316-676b-4705-9da5-6822f75a89df}, !- Schedule Ruleset Name
  0,                                      !- Rule Order
  {a5c7712d-cc59-4689-a74c-e7e72552afbd}, !- Day Schedule Name
  Yes,                                    !- Apply Sunday
  Yes,                                    !- Apply Monday
  Yes,                                    !- Apply Tuesday
  Yes,                                    !- Apply Wednesday
  Yes,                                    !- Apply Thursday
  Yes,                                    !- Apply Friday
  Yes,                                    !- Apply Saturday
  DateRange,                              !- Date Specification Type
  1,                                      !- Start Month
  1,                                      !- Start Day
  12,                                     !- End Month
  31;                                     !- End Day

OS:Schedule:Day,
  {a5c7712d-cc59-4689-a74c-e7e72552afbd}, !- Handle
  cooling setpoint day,                   !- Name
  {fc1266cc-402b-4b68-964b-42c6bfd7d360}, !- Schedule Type Limits Name
  ,                                       !- Interpolate to Timestep
  24,                                     !- Hour 1
  0,                                      !- Minute 1
  25.5555555555556;                       !- Value Until Time 1

OS:ThermostatSetpoint:DualSetpoint,
  {49bef2b8-c6d7-4b3d-8b83-6c9b7160dd83}, !- Handle
  conditioned space temperature setpoint, !- Name
  {6708b715-debb-4abd-ad15-ba968bb4f8ec}, !- Heating Setpoint Temperature Schedule Name
  {72f6f316-676b-4705-9da5-6822f75a89df}, !- Cooling Setpoint Temperature Schedule Name
  0;                                      !- Temperature Difference Between Cutout And Setpoint {deltaC}

OS:ScheduleTypeLimits,
  {fc1266cc-402b-4b68-964b-42c6bfd7d360}, !- Handle
  Temperature,                            !- Name
  ,                                       !- Lower Limit Value
  ,                                       !- Upper Limit Value
  Continuous,                             !- Numeric Type
  Temperature;                            !- Unit Type

OS:Surface,
  {3c06c47b-0b9f-434b-ad99-43cb65eb58f8}, !- Handle
  Roof1,                                  !- Name
  RoofCeiling,                            !- Surface Type
  {c74210a6-30ad-4f7e-9904-68e49d66c5a0}, !- Construction Name
  {1e14d40c-7775-4757-8dad-eac4ff0ffa07}, !- Space Name
  Outdoors,                               !- Outside Boundary Condition
  ,                                       !- Outside Boundary Condition Object
  SunExposed,                             !- Sun Exposure
  WindExposed,                            !- Wind Exposure
  ,                                       !- View Factor to Ground
  ,                                       !- Number of Vertices
  -8.42346109387347, 8.42346109387347, 3.048, !- X,Y,Z Vertex 1 {m}
  -8.42346109387347, -8.42346109387347, 3.048, !- X,Y,Z Vertex 2 {m}
  8.42346109387347, -8.42346109387347, 3.048, !- X,Y,Z Vertex 3 {m}
  8.42346109387347, 8.42346109387347, 3.048; !- X,Y,Z Vertex 4 {m}

OS:AdditionalProperties,
  {dacff76b-77c8-4347-9c42-79148de91bee}, !- Handle
  {3c06c47b-0b9f-434b-ad99-43cb65eb58f8}, !- Object Name
  Length,                                 !- Feature Name 1
  Double,                                 !- Feature Data Type 1
  55.27205442174192,                      !- Feature Value 1
  Width,                                  !- Feature Name 2
  Double,                                 !- Feature Data Type 2
  55.272054421741913,                     !- Feature Value 2
  Azimuth,                                !- Feature Name 3
  Integer,                                !- Feature Data Type 3
  0,                                      !- Feature Value 3
  Tilt,                                   !- Feature Name 4
  Double,                                 !- Feature Data Type 4
  0,                                      !- Feature Value 4
  SurfaceType,                            !- Feature Name 5
  String,                                 !- Feature Data Type 5
  Roof;                                   !- Feature Value 5

OS:Material,
  {6eecf19f-adf8-4174-a46a-739598e10d8f}, !- Handle
  asphalt or fiberglass shingles,         !- Name
  Rough,                                  !- Roughness
  0.00635,                                !- Thickness {m}
  0.162714,                               !- Conductivity {W/m-K}
  1121.4,                                 !- Density {kg/m3}
  1465.45,                                !- Specific Heat {J/kg-K}
  0.9,                                    !- Thermal Absorptance
  0.85,                                   !- Solar Absorptance
  0.85;                                   !- Visible Absorptance

OS:Material,
  {ec38ddea-76e1-4c02-8f2c-4e616ea1cb75}, !- Handle
  roof stud and cavity,                   !- Name
  Rough,                                  !- Roughness
  0.0889,                                 !- Thickness {m}
  0.491900632004487,                      !- Conductivity {W/m-K}
  50.32683,                               !- Density {kg/m3}
  1063.80987585548,                       !- Specific Heat {J/kg-K}
  0.9,                                    !- Thermal Absorptance
  0.7,                                    !- Solar Absorptance
  0.7;                                    !- Visible Absorptance

OS:Material,
  {84c88b6c-cbf4-41d4-ac71-25722b01669a}, !- Handle
  gypsum board,                           !- Name
  Rough,                                  !- Roughness
  0.00254,                                !- Thickness {m}
  0.1602906,                              !- Conductivity {W/m-K}
  801,                                    !- Density {kg/m3}
  837.4,                                  !- Specific Heat {J/kg-K}
  0.9,                                    !- Thermal Absorptance
  0.6,                                    !- Solar Absorptance
  0.6;                                    !- Visible Absorptance

OS:Construction,
  {c74210a6-30ad-4f7e-9904-68e49d66c5a0}, !- Handle
  Roof1 construction,                     !- Name
  ,                                       !- Surface Rendering Name
  {6eecf19f-adf8-4174-a46a-739598e10d8f}, !- Layer 1
  {ec38ddea-76e1-4c02-8f2c-4e616ea1cb75}, !- Layer 2
  {84c88b6c-cbf4-41d4-ac71-25722b01669a}; !- Layer 3

OS:Surface,
  {e2b42fc2-1697-475d-8a9b-716a3f88f44c}, !- Handle
  Wall1,                                  !- Name
  Wall,                                   !- Surface Type
  {f9619cc3-f7e3-493a-ba1e-d16c371992ec}, !- Construction Name
  {1e14d40c-7775-4757-8dad-eac4ff0ffa07}, !- Space Name
  Outdoors,                               !- Outside Boundary Condition
  ,                                       !- Outside Boundary Condition Object
  SunExposed,                             !- Sun Exposure
  WindExposed,                            !- Wind Exposure
  ,                                       !- View Factor to Ground
  ,                                       !- Number of Vertices
  -13.6265098242187, 15.6365136527044, 0.6096, !- X,Y,Z Vertex 1 {m}
  -13.6265098242187, 15.6365136527044, 3.048, !- X,Y,Z Vertex 2 {m}
  5.90736017578134, 15.6365136527044, 3.048, !- X,Y,Z Vertex 3 {m}
  5.90736017578134, 15.6365136527044, 0.6096; !- X,Y,Z Vertex 4 {m}

OS:AdditionalProperties,
  {1810491e-edf9-444e-99c2-f02c41f53cf6}, !- Handle
  {e2b42fc2-1697-475d-8a9b-716a3f88f44c}, !- Object Name
  Length,                                 !- Feature Name 1
  Double,                                 !- Feature Data Type 1
  64.087499999999991,                     !- Feature Value 1
  Azimuth,                                !- Feature Name 2
  Integer,                                !- Feature Data Type 2
  0,                                      !- Feature Value 2
  Tilt,                                   !- Feature Name 3
  Double,                                 !- Feature Data Type 3
  90,                                     !- Feature Value 3
  SurfaceType,                            !- Feature Name 4
  String,                                 !- Feature Data Type 4
  Wall;                                   !- Feature Value 4

OS:Material,
  {53c51f59-d0b5-4ef0-9d4a-f0455bd233b9}, !- Handle
  wood siding,                            !- Name
  Rough,                                  !- Roughness
  0.0254,                                 !- Thickness {m}
  0.1024175,                              !- Conductivity {W/m-K}
  544.68,                                 !- Density {kg/m3}
  1172.36,                                !- Specific Heat {J/kg-K}
  0.9,                                    !- Thermal Absorptance
  0.7,                                    !- Solar Absorptance
  0.7;                                    !- Visible Absorptance

OS:Material,
  {2e19d73a-eeeb-4154-b363-b537ad3037d4}, !- Handle
  osb sheathing 0.5 in.,                  !- Name
  Rough,                                  !- Roughness
  0.0127,                                 !- Thickness {m}
  0.1154577,                              !- Conductivity {W/m-K}
  512.64,                                 !- Density {kg/m3}
  1214.23,                                !- Specific Heat {J/kg-K}
  0.9,                                    !- Thermal Absorptance
  0.7,                                    !- Solar Absorptance
  0.7;                                    !- Visible Absorptance

OS:Material,
  {d5911f6d-a182-45ee-a585-68d98a6ccf4a}, !- Handle
  wall stud and cavity,                   !- Name
  Rough,                                  !- Roughness
  0.1397,                                 !- Thickness {m}
  0.0929021674204099,                     !- Conductivity {W/m-K}
  139.0536,                               !- Density {kg/m3}
  1170.23755760369,                       !- Specific Heat {J/kg-K}
  0.9,                                    !- Thermal Absorptance
  0.7,                                    !- Solar Absorptance
  0.7;                                    !- Visible Absorptance

OS:Material,
  {e3d07857-c8ee-42df-beea-e27b450cdd88}, !- Handle
  gypsum board 1,                         !- Name
  Rough,                                  !- Roughness
  0.0127,                                 !- Thickness {m}
  0.1602906,                              !- Conductivity {W/m-K}
  801,                                    !- Density {kg/m3}
  837.4,                                  !- Specific Heat {J/kg-K}
  0.9,                                    !- Thermal Absorptance
  0.6,                                    !- Solar Absorptance
  0.6;                                    !- Visible Absorptance

OS:Construction,
  {f9619cc3-f7e3-493a-ba1e-d16c371992ec}, !- Handle
  Wall1 construction,                     !- Name
  ,                                       !- Surface Rendering Name
  {53c51f59-d0b5-4ef0-9d4a-f0455bd233b9}, !- Layer 1
  {2e19d73a-eeeb-4154-b363-b537ad3037d4}, !- Layer 2
  {d5911f6d-a182-45ee-a585-68d98a6ccf4a}, !- Layer 3
  {e3d07857-c8ee-42df-beea-e27b450cdd88}; !- Layer 4

OS:Surface,
  {01c7f296-c6a4-46b7-a524-5b8777e7636c}, !- Handle
  Wall2,                                  !- Name
  Wall,                                   !- Surface Type
  {5cfd5ee9-9d2e-4eb7-92e2-006e66aa455d}, !- Construction Name
  {1e14d40c-7775-4757-8dad-eac4ff0ffa07}, !- Space Name
  Outdoors,                               !- Outside Boundary Condition
  ,                                       !- Outside Boundary Condition Object
  SunExposed,                             !- Sun Exposure
  WindExposed,                            !- Wind Exposure
  ,                                       !- View Factor to Ground
  ,                                       !- Number of Vertices
  15.6365136527044, -0.538581714242879, 0.6096, !- X,Y,Z Vertex 1 {m}
  15.6365136527044, -0.538581714242879, 3.048, !- X,Y,Z Vertex 2 {m}
  15.6365136527044, -10.3074217142429, 3.048, !- X,Y,Z Vertex 3 {m}
  15.6365136527044, -10.3074217142429, 0.6096; !- X,Y,Z Vertex 4 {m}

OS:AdditionalProperties,
  {80558ec0-456a-42d6-9bc7-cea307d336b7}, !- Handle
  {01c7f296-c6a4-46b7-a524-5b8777e7636c}, !- Object Name
  Length,                                 !- Feature Name 1
  Double,                                 !- Feature Data Type 1
  32.049999999999997,                     !- Feature Value 1
  Azimuth,                                !- Feature Name 2