
OS:Version,
  {9e830953-c450-469e-bdd3-d7f7301b55bc}, !- Handle
  3.10.0;                                 !- Version Identifier

OS:SimulationControl,
  {9242fe64-cf20-4a3c-a0e6-3895ca629d53}, !- Handle
  ,                                       !- Do Zone Sizing Calculation
  ,                                       !- Do System Sizing Calculation
  ,                                       !- Do Plant Sizing Calculation
  No;                                     !- Run Simulation for Sizing Periods

OS:Timestep,
  {78e875a9-01e5-4b64-9585-992e1a5fd235}, !- Handle
  1;                                      !- Number of Timesteps per Hour

OS:ShadowCalculation,
  {1904e4dc-0062-4ece-ad4e-188c3d4ed353}, !- Handle
  PolygonClipping,                        !- Shading Calculation Method
  ,                                       !- Shading Calculation Update Frequency Method
  20,                                     !- Shading Calculation Update Frequency
  200,                                    !- Maximum Figures in Shadow Overlap Calculations
  ,                                       !- Polygon Clipping Algorithm
  512,                                    !- Pixel Counting Resolution
  ,                                       !- Sky Diffuse Modeling Algorithm
  No,                                     !- Output External Shading Calculation Results
  No,                                     !- Disable Self-Shading Within Shading Zone Groups
  No;                                     !- Disable Self-Shading From Shading Zone Groups to Other Zones

OS:SurfaceConvectionAlgorithm:Outside,
  {452e4b97-baa5-4e0b-82f4-fb20b2974c22}, !- Handle
  DOE-2;                                  !- Algorithm

OS:SurfaceConvectionAlgorithm:Inside,
  {0492b975-7bf3-42ce-b01c-cc1de663ebdb}, !- Handle
  TARP;                                   !- Algorithm

OS:ZoneCapacitanceMultiplier:ResearchSpecial,
  {c5ec369b-9d0a-4784-9e0b-455baff1f306}, !- Handle
  7,                                      !- Temperature Capacity Multiplier
  15,                                     !- Humidity Capacity Multiplier
  ;                                       !- Carbon Dioxide Capacity Multiplier

OS:ConvergenceLimits,
  {a8ad7d7f-acbc-465f-b881-b1c935a1cd1c}, !- Handle
  0;                                      !- Minimum System Timestep {minutes}

OS:RunPeriod,
  {74f9ff9f-c3e7-4168-b02b-bd8b819d514b}, !- Handle
  Run Period 1,                           !- Name
  1,                                      !- Begin Month
  1,                                      !- Begin Day of Month
  12,                                     !- End Month
  31,                                     !- End Day of Month
  ,                                       !- Use Weather File Holidays and Special Days
  ,                                       !- Use Weather File Daylight Saving Period
  ,                                       !- Apply Weekend Holiday Rule
  ,                                       !- Use Weather File Rain Indicators
  ,                                       !- Use Weather File Snow Indicators
  ;                                       !- Number of Times Runperiod to be Repeated

OS:PerformancePrecisionTradeoffs,
  {e3385438-4a7a-453e-92e7-554471519b59}, !- Handle
  ,                                       !- Use Coil Direct Solutions
  CarrollMRT;                             !- Zone Radiant Exchange Algorithm

OS:WeatherFile,
  {97ecc962-0e68-4459-82c0-4f71488d2c0e}, !- Handle
  Buffalo Niagara Intl Ap,                !- City
  NY,                                     !- State Province Region
  USA,                                    !- Country
  TMY3,                                   !- Data Source
  725280,                                 !- WMO Number
  42.93,                                  !- Latitude {deg}
  -78.73,                                 !- Longitude {deg}
  -5,                                     !- Time Zone {hr}
  215,                                    !- Elevation {m}
  /Users/nmoore/github/urbanopt-example-geojson-project/example_project/weather/USA_NY_Buffalo-Greater.Buffalo.Intl.AP.725280_TMY3.epw, !- Url
  6B50E0FF,                               !- Checksum
  ,                                       !- Start Date Actual Year
  Sunday;                                 !- Start Day of Week

OS:YearDescription,
  {2c95eb54-6e19-4ae8-8b7c-5ad211c15ed1}, !- Handle
  2007,                                   !- Calendar Year
  ,                                       !- Day of Week for Start Day
  ;                                       !- Is Leap Year

OS:Site,
  {c4129c79-f80b-4d8b-9a3c-d95dff50aa57}, !- Handle
  Buffalo Niagara Intl Ap_NY,             !- Name
  42.93,                                  !- Latitude {deg}
  -78.73,                                 !- Longitude {deg}
  -5,                                     !- Time Zone {hr}
  215,                                    !- Elevation {m}
  Suburbs,                                !- Terrain
  Yes;                                    !- Keep Site Location Information

OS:RunPeriodControl:DaylightSavingTime,
  {7b6f5365-64c9-49d1-a5fa-c61f277e5637}, !- Handle
  Mar 12,                                 !- Start Date
  Nov 5;                                  !- End Date

OS:Site:GroundTemperature:Shallow,
  {dfe24838-9a61-4013-ad9b-ca3e7db2b781}, !- Handle
  4.30207395723828,                       !- January Surface Ground Temperature {C}
  2.29327249652502,                       !- February Surface Ground Temperature {C}
  2.13240047156047,                       !- March Surface Ground Temperature {C}
  3.08567940719286,                       !- April Surface Ground Temperature {C}
  6.91256312497526,                       !- May Surface Ground Temperature {C}
  10.7216195949507,                       !- June Surface Ground Temperature {C}
  14.0238679822574,                       !- July Surface Ground Temperature {C}
  16.1157611184724,                       !- August Surface Ground Temperature {C}
  16.2934789303462,                       !- September Surface Ground Temperature {C}
  14.5920754632847,                       !- October Surface Ground Temperature {C}
  11.374036348653,                        !- November Surface Ground Temperature {C}
  7.68182621661674;                       !- December Surface Ground Temperature {C}

OS:ThermalZone,
  {5216aa0a-5731-4d67-afe1-b91b42aa5db4}, !- Handle
  conditioned space,                      !- Name
  1,                                      !- Multiplier
  ,                                       !- Ceiling Height {m}
  692.06373070848,                        !- Volume {m3}
  ,                                       !- Floor Area {m2}
  ,                                       !- Zone Inside Convection Algorithm
  ,                                       !- Zone Outside Convection Algorithm
  ,                                       !- Zone Conditioning Equipment List Name
  {b5409b54-8bab-4241-89c1-6822ee8ce9b7}, !- Zone Air Inlet Port List
  {ae7b3a90-42aa-4510-aff6-b115b580d201}, !- Zone Air Exhaust Port List
  {dc92dae6-31d1-438a-9c53-875aba5e8b4d}, !- Zone Air Node Name
  {30068008-554c-43b4-800a-ab815e445639}, !- Zone Return Air Port List
  ,                                       !- Primary Daylighting Control Name
  ,                                       !- Fraction of Zone Controlled by Primary Daylighting Control
  ,                                       !- Secondary Daylighting Control Name
  ,                                       !- Fraction of Zone Controlled by Secondary Daylighting Control
  ,                                       !- Illuminance Map Name
  ,                                       !- Group Rendering Name
  {2d5748ea-ca4d-4f78-b470-7b72f66c77a7}, !- Thermostat Name
  No;                                     !- Use Ideal Air Loads

OS:Node,
  {c8ff1f48-0aca-46b5-b9b2-0bc8f0f5a821}, !- Handle
  Node 1,                                 !- Name
  {dc92dae6-31d1-438a-9c53-875aba5e8b4d}, !- Inlet Port
  ;                                       !- Outlet Port

OS:Connection,
  {dc92dae6-31d1-438a-9c53-875aba5e8b4d}, !- Handle
  {5216aa0a-5731-4d67-afe1-b91b42aa5db4}, !- Source Object
  11,                                     !- Outlet Port
  {c8ff1f48-0aca-46b5-b9b2-0bc8f0f5a821}, !- Target Object
  2;                                      !- Inlet Port

OS:PortList,
  {b5409b54-8bab-4241-89c1-6822ee8ce9b7}, !- Handle
  {5216aa0a-5731-4d67-afe1-b91b42aa5db4}, !- HVAC Component
  {0306b501-7861-4aec-9aa7-d2a5dabddfa3}; !- Port 1

OS:PortList,
  {ae7b3a90-42aa-4510-aff6-b115b580d201}, !- Handle
  {5216aa0a-5731-4d67-afe1-b91b42aa5db4}; !- HVAC Component

OS:PortList,
  {30068008-554c-43b4-800a-ab815e445639}, !- Handle
  {5216aa0a-5731-4d67-afe1-b91b42aa5db4}, !- HVAC Component
  {aa7d325a-08c5-482e-afd8-91a869deb329}; !- Port 1

OS:Sizing:Zone,
  {90cfccec-e7a3-4d9f-9eb1-80c81b18cfe9}, !- Handle
  {5216aa0a-5731-4d67-afe1-b91b42aa5db4}, !- Zone or ZoneList Name
  SupplyAirTemperature,                   !- Zone Cooling Design Supply Air Temperature Input Method
  14,                                     !- Zone Cooling Design Supply Air Temperature {C}
  11.11,                                  !- Zone Cooling Design Supply Air Temperature Difference {deltaC}
  SupplyAirTemperature,                   !- Zone Heating Design Supply Air Temperature Input Method
  40,                                     !- Zone Heating Design Supply Air Temperature {C}
  11.11,                                  !- Zone Heating Design Supply Air Temperature Difference {deltaC}
  0.0085,                                 !- Zone Cooling Design Supply Air Humidity Ratio {kg-H2O/kg-air}
  0.008,                                  !- Zone Heating Design Supply Air Humidity Ratio {kg-H2O/kg-air}
  ,                                       !- Zone Heating Sizing Factor
  ,                                       !- Zone Cooling Sizing Factor
  DesignDay,                              !- Cooling Design Air Flow Method
  ,                                       !- Cooling Design Air Flow Rate {m3/s}
  ,                                       !- Cooling Minimum Air Flow per Zone Floor Area {m3/s-m2}
  ,                                       !- Cooling Minimum Air Flow {m3/s}
  ,                                       !- Cooling Minimum Air Flow Fraction
  DesignDay,                              !- Heating Design Air Flow Method
  ,                                       !- Heating Design Air Flow Rate {m3/s}
  ,                                       !- Heating Maximum Air Flow per Zone Floor Area {m3/s-m2}
  ,                                       !- Heating Maximum Air Flow {m3/s}
  ,                                       !- Heating Maximum Air Flow Fraction
  No,                                     !- Account for Dedicated Outdoor Air System
  NeutralSupplyAir,                       !- Dedicated Outdoor Air System Control Strategy
  autosize,                               !- Dedicated Outdoor Air Low Setpoint Temperature for Design {C}
  autosize,                               !- Dedicated Outdoor Air High Setpoint Temperature for Design {C}
  Sensible Load Only No Latent Load,      !- Zone Load Sizing Method
  HumidityRatioDifference,                !- Zone Latent Cooling Design Supply Air Humidity Ratio Input Method
  ,                                       !- Zone Dehumidification Design Supply Air Humidity Ratio {kgWater/kgDryAir}
  0.005,                                  !- Zone Cooling Design Supply Air Humidity Ratio Difference {kgWater/kgDryAir}
  HumidityRatioDifference,                !- Zone Latent Heating Design Supply Air Humidity Ratio Input Method
  ,                                       !- Zone Humidification Design Supply Air Humidity Ratio {kgWater/kgDryAir}
  0.005,                                  !- Zone Humidification Design Supply Air Humidity Ratio Difference {kgWater/kgDryAir}
  ,                                       !- Zone Humidistat Dehumidification Set Point Schedule Name
  ,                                       !- Zone Humidistat Humidification Set Point Schedule Name
  ,                                       !- Design Zone Air Distribution Effectiveness in Cooling Mode
  ,                                       !- Design Zone Air Distribution Effectiveness in Heating Mode
  ,                                       !- Design Zone Secondary Recirculation Fraction {dimensionless}
  ,                                       !- Design Minimum Zone Ventilation Efficiency {dimensionless}
  Coincident;                             !- Sizing Option

OS:ZoneHVAC:EquipmentList,
  {e63c45bb-71b5-402a-ade8-ae9ae584c752}, !- Handle
  Zone HVAC Equipment List 1,             !- Name
  {5216aa0a-5731-4d67-afe1-b91b42aa5db4}, !- Thermal Zone
  ,                                       !- Load Distribution Scheme
  {6b2fb520-da67-4527-9a41-9127940bf561}, !- Zone Equipment 1
  1,                                      !- Zone Equipment Cooling Sequence 1
  1,                                      !- Zone Equipment Heating or No-Load Sequence 1
  {3b23efbb-8fd6-4e9b-8fe5-294e1f5122a4}, !- Zone Equipment Sequential Cooling Fraction Schedule Name 1
  {72534a75-39f6-4dd4-8f85-f0454bf804e9}; !- Zone Equipment Sequential Heating Fraction Schedule Name 1

OS:AdditionalProperties,
  {26212949-082d-4b75-a74c-0fa64c2b26dc}, !- Handle
  {5216aa0a-5731-4d67-afe1-b91b42aa5db4}, !- Object Name
  ObjectType,                             !- Feature Name 1
  String,                                 !- Feature Data Type 1
  conditioned space;                      !- Feature Value 1

OS:Space,
  {2f53ee26-7fba-47b7-86f6-1ca3874f16c0}, !- Handle
  conditioned space 1,                    !- Name
  ,                                       !- Space Type Name
  ,                                       !- Default Construction Set Name
  ,                                       !- Default Schedule Set Name
  ,                                       !- Direction of Relative North {deg}
  ,                                       !- X Origin {m}
  ,                                       !- Y Origin {m}
  ,                                       !- Z Origin {m}
  ,                                       !- Building Story Name
  {5216aa0a-5731-4d67-afe1-b91b42aa5db4}, !- Thermal Zone Name
  ,                                       !- Part of Total Floor Area
  ,                                       !- Design Specification Outdoor Air Object Name
  ,                                       !- Building Unit Name
  692.06373070848;                        !- Volume {m3}

OS:Schedule:Ruleset,
  {f3afa3a8-5901-43b4-a912-0a510ede3225}, !- Handle
  heating setpoint,                       !- Name
  {074eef99-8acd-4465-a83d-f627127702ca}, !- Schedule Type Limits Name
  {914df25d-7ccf-4372-b88d-e4cee58afdb0}; !- Default Day Schedule Name

OS:Schedule:Day,
  {914df25d-7ccf-4372-b88d-e4cee58afdb0}, !- Handle
  heating setpoint default day,           !- Name
  {074eef99-8acd-4465-a83d-f627127702ca}, !- Schedule Type Limits Name
  ,                                       !- Interpolate to Timestep
  24,                                     !- Hour 1
  0,                                      !- Minute 1
  0;                                      !- Value Until Time 1

OS:Schedule:Rule,
  {144ebf87-72f7-47f1-b380-6194edd1c4ee}, !- Handle
  heating setpoint allday rule,           !- Name
  {f3afa3a8-5901-43b4-a912-0a510ede3225}, !- Schedule Ruleset Name
  0,                                      !- Rule Order
  {dc19d480-1d7d-4a32-a694-1c4a6051a792}, !- Day Schedule Name
  Yes,                                    !- Apply Sunday
  Yes,                                    !- Apply Monday
  Yes,                                    !- Apply Tuesday
  Yes,                                    !- Apply Wednesday
  Yes,                                    !- Apply Thursday
  Yes,                                    !- Apply Friday
  Yes,                                    !- Apply Saturday
  DateRange,                              !- Date Specification Type
  1,                                      !- Start Month
  1,                                      !- Start Day
  12,                                     !- End Month
  31;                                     !- End Day

OS:Schedule:Day,
  {dc19d480-1d7d-4a32-a694-1c4a6051a792}, !- Handle
  heating setpoint day,                   !- Name
  {074eef99-8acd-4465-a83d-f627127702ca}, !- Schedule Type Limits Name
  ,                                       !- Interpolate to Timestep
  24,                                     !- Hour 1
  0,                                      !- Minute 1
  20;                                     !- Value Until Time 1

OS:Schedule:Ruleset,
  {f51b56c9-aa95-46ff-b149-bd59bf3af786}, !- Handle
  cooling setpoint,                       !- Name
  {074eef99-8acd-4465-a83d-f627127702ca}, !- Schedule Type Limits Name
  {fcc0dba1-a603-40d3-929f-92a9efbe41a2}; !- Default Day Schedule Name

OS:Schedule:Day,
  {fcc0dba1-a603-40d3-929f-92a9efbe41a2}, !- Handle
  cooling setpoint default day,           !- Name
  {074eef99-8acd-4465-a83d-f627127702ca}, !- Schedule Type Limits Name
  ,                                       !- Interpolate to Timestep
  24,                                     !- Hour 1
  0,                                      !- Minute 1
  0;                                      !- Value Until Time 1

OS:Schedule:Rule,
  {1f9af247-a908-405f-a9f5-6d1d59e41cb9}, !- Handle
  cooling setpoint allday rule,           !- Name
  {f51b56c9-aa95-46ff-b149-bd59bf3af786}, !- Schedule Ruleset Name
  0,                                      !- Rule Order
  {1a57e59a-86eb-4194-84c8-e3d6cf842cce}, !- Day Schedule Name
  Yes,                                    !- Apply Sunday
  Yes,                                    !- Apply Monday
  Yes,                                    !- Apply Tuesday
  Yes,                                    !- Apply Wednesday
  Yes,                                    !- Apply Thursday
  Yes,                                    !- Apply Friday
  Yes,                                    !- Apply Saturday
  DateRange,                              !- Date Specification Type
  1,                                      !- Start Month
  1,                                      !- Start Day
  12,                                     !- End Month
  31;                                     !- End Day

OS:Schedule:Day,
  {1a57e59a-86eb-4194-84c8-e3d6cf842cce}, !- Handle
  cooling setpoint day,                   !- Name
  {074eef99-8acd-4465-a83d-f627127702ca}, !- Schedule Type Limits Name
  ,                                       !- Interpolate to Timestep
  24,                                     !- Hour 1
  0,                                      !- Minute 1
  25.5555555555556;                       !- Value Until Time 1

OS:ThermostatSetpoint:DualSetpoint,
  {2d5748ea-ca4d-4f78-b470-7b72f66c77a7}, !- Handle
  conditioned space temperature setpoint, !- Name
  {f3afa3a8-5901-43b4-a912-0a510ede3225}, !- Heating Setpoint Temperature Schedule Name
  {f51b56c9-aa95-46ff-b149-bd59bf3af786}, !- Cooling Setpoint Temperature Schedule Name
  0;                                      !- Temperature Difference Between Cutout And Setpoint {deltaC}

OS:ScheduleTypeLimits,
  {074eef99-8acd-4465-a83d-f627127702ca}, !- Handle
  Temperature,                            !- Name
  ,                                       !- Lower Limit Value
  ,                                       !- Upper Limit Value
  Continuous,                             !- Numeric Type
  Temperature;                            !- Unit Type

OS:Surface,
  {f579bd88-8ea4-468f-af7a-db56b668542d}, !- Handle
  Roof1,                                  !- Name
  RoofCeiling,                            !- Surface Type
  {a412aa98-df55-4c67-ad56-bb7b22f60a74}, !- Construction Name
  {2f53ee26-7fba-47b7-86f6-1ca3874f16c0}, !- Space Name
  Outdoors,                               !- Outside Boundary Condition
  ,                                       !- Outside Boundary Condition Object
  SunExposed,                             !- Sun Exposure
  WindExposed,                            !- Wind Exposure
  ,                                       !- View Factor to Ground
  ,                                       !- Number of Vertices
  -8.42346109387347, 8.42346109387347, 3.048, !- X,Y,Z Vertex 1 {m}
  -8.42346109387347, -8.42346109387347, 3.048, !- X,Y,Z Vertex 2 {m}
  8.42346109387347, -8.42346109387347, 3.048, !- X,Y,Z Vertex 3 {m}
  8.42346109387347, 8.42346109387347, 3.048; !- X,Y,Z Vertex 4 {m}

OS:AdditionalProperties,
  {a335dd88-3ac4-4f45-a6db-5068433e8568}, !- Handle
  {f579bd88-8ea4-468f-af7a-db56b668542d}, !- Object Name
  Length,                                 !- Feature Name 1
  Double,                                 !- Feature Data Type 1
  55.27205442174192,                      !- Feature Value 1
  Width,                                  !- Feature Name 2
  Double,                                 !- Feature Data Type 2
  55.272054421741913,                     !- Feature Value 2
  Azimuth,                                !- Feature Name 3
  Integer,                                !- Feature Data Type 3
  0,                                      !- Feature Value 3
  Tilt,                                   !- Feature Name 4
  Double,                                 !- Feature Data Type 4
  0,                                      !- Feature Value 4
  SurfaceType,                            !- Feature Name 5
  String,                                 !- Feature Data Type 5
  Roof;                                   !- Feature Value 5

OS:Material,
  {018a57ac-2f7a-4695-a067-03f0773970d1}, !- Handle
  asphalt or fiberglass shingles,         !- Name
  Rough,                                  !- Roughness
  0.00635,                                !- Thickness {m}
  0.162714,                               !- Conductivity {W/m-K}
  1121.4,                                 !- Density {kg/m3}
  1465.45,                                !- Specific Heat {J/kg-K}
  0.9,                                    !- Thermal Absorptance
  0.85,                                   !- Solar Absorptance
  0.85;                                   !- Visible Absorptance

OS:Material,
  {6454ffd0-31f5-491a-9f36-59a5cfa4c213}, !- Handle
  roof stud and cavity,                   !- Name
  Rough,                                  !- Roughness
  0.0889,                                 !- Thickness {m}
  0.491900632004487,                      !- Conductivity {W/m-K}
  50.32683,                               !- Density {kg/m3}
  1063.80987585548,                       !- Specific Heat {J/kg-K}
  0.9,                                    !- Thermal Absorptance
  0.7,                                    !- Solar Absorptance
  0.7;                                    !- Visible Absorptance

OS:Material,
  {baa05f1e-5349-48c6-b7f8-bf94a6a00c54}, !- Handle
  gypsum board,                           !- Name
  Rough,                                  !- Roughness
  0.00254,                                !- Thickness {m}
  0.1602906,                              !- Conductivity {W/m-K}
  801,                                    !- Density {kg/m3}
  837.4,                                  !- Specific Heat {J/kg-K}
  0.9,                                    !- Thermal Absorptance
  0.6,                                    !- Solar Absorptance
  0.6;                                    !- Visible Absorptance

OS:Construction,
  {a412aa98-df55-4c67-ad56-bb7b22f60a74}, !- Handle
  Roof1 construction,                     !- Name
  ,                                       !- Surface Rendering Name
  {018a57ac-2f7a-4695-a067-03f0773970d1}, !- Layer 1
  {6454ffd0-31f5-491a-9f36-59a5cfa4c213}, !- Layer 2
  {baa05f1e-5349-48c6-b7f8-bf94a6a00c54}; !- Layer 3

OS:Surface,
  {9176041e-1695-4109-8553-da3659007be6}, !- Handle
  Wall1,                                  !- Name
  Wall,                                   !- Surface Type
  {b91f1fb9-0ad7-46e9-9329-9e2b6d7eae5e}, !- Construction Name
  {2f53ee26-7fba-47b7-86f6-1ca3874f16c0}, !- Space Name
  Outdoors,                               !- Outside Boundary Condition
  ,                                       !- Outside Boundary Condition Object
  SunExposed,                             !- Sun Exposure
  WindExposed,                            !- Wind Exposure
  ,                                       !- View Factor to Ground
  ,                                       !- Number of Vertices
  -13.6265098242187, 15.6365136527044, 0.6096, !- X,Y,Z Vertex 1 {m}
  -13.6265098242187, 15.6365136527044, 3.048, !- X,Y,Z Vertex 2 {m}
  5.90736017578134, 15.6365136527044, 3.048, !- X,Y,Z Vertex 3 {m}
  5.90736017578134, 15.6365136527044, 0.6096; !- X,Y,Z Vertex 4 {m}

OS:AdditionalProperties,
  {eb6b1c95-e42b-4739-8616-e3c03a494406}, !- Handle
  {9176041e-1695-4109-8553-da3659007be6}, !- Object Name
  Length,                                 !- Feature Name 1
  Double,                                 !- Feature Data Type 1
  64.087499999999991,                     !- Feature Value 1
  Azimuth,                                !- Feature Name 2
  Integer,                                !- Feature Data Type 2
  0,                                      !- Feature Value 2
  Tilt,                                   !- Feature Name 3
  Double,                                 !- Feature Data Type 3
  90,                                     !- Feature Value 3
  SurfaceType,                            !- Feature Name 4
  String,                                 !- Feature Data Type 4
  Wall;                                   !- Feature Value 4

OS:Material,
  {07aa332e-9efc-4d42-af69-6fed892a2237}, !- Handle
  wood siding,                            !- Name
  Rough,                                  !- Roughness
  0.0254,                                 !- Thickness {m}
  0.1024175,                              !- Conductivity {W/m-K}
  544.68,                                 !- Density {kg/m3}
  1172.36,                                !- Specific Heat {J/kg-K}
  0.9,                                    !- Thermal Absorptance
  0.7,                                    !- Solar Absorptance
  0.7;                                    !- Visible Absorptance

OS:Material,
  {e539967a-02e1-4b88-b626-0ed52874e7a4}, !- Handle
  osb sheathing 0.5 in.,                  !- Name
  Rough,                                  !- Roughness
  0.0127,                                 !- Thickness {m}
  0.1154577,                              !- Conductivity {W/m-K}
  512.64,                                 !- Density {kg/m3}
  1214.23,                                !- Specific Heat {J/kg-K}
  0.9,                                    !- Thermal Absorptance
  0.7,                                    !- Solar Absorptance
  0.7;                                    !- Visible Absorptance

OS:Material,
  {8dad5fc2-47b9-43b9-8383-3d098dbb08dc}, !- Handle
  wall stud and cavity,                   !- Name
  Rough,                                  !- Roughness
  0.1397,                                 !- Thickness {m}
  0.0929021674204099,                     !- Conductivity {W/m-K}
  139.0536,                               !- Density {kg/m3}
  1170.23755760369,                       !- Specific Heat {J/kg-K}
  0.9,                                    !- Thermal Absorptance
  0.7,                                    !- Solar Absorptance
  0.7;                                    !- Visible Absorptance

OS:Material,
  {de8287a4-ee8b-4ce9-97a3-cd4388b4a19c}, !- Handle
  gypsum board 1,                         !- Name
  Rough,                                  !- Roughness
  0.0127,                                 !- Thickness {m}
  0.1602906,                              !- Conductivity {W/m-K}
  801,                                    !- Density {kg/m3}
  837.4,                                  !- Specific Heat {J/kg-K}
  0.9,                                    !- Thermal Absorptance
  0.6,                                    !- Solar Absorptance
  0.6;                                    !- Visible Absorptance

OS:Construction,
  {b91f1fb9-0ad7-46e9-9329-9e2b6d7eae5e}, !- Handle
  Wall1 construction,                     !- Name
  ,                                       !- Surface Rendering Name
  {07aa332e-9efc-4d42-af69-6fed892a2237}, !- Layer 1
  {e539967a-02e1-4b88-b626-0ed52874e7a4}, !- Layer 2
  {8dad5fc2-47b9-43b9-8383-3d098dbb08dc}, !- Layer 3
  {de8287a4-ee8b-4ce9-97a3-cd4388b4a19c}; !- Layer 4

OS:Surface,
  {38016114-27e7-4345-98ed-934ea9c1739c}, !- Handle
  Wall2,                                  !- Name
  Wall,                                   !- Surface Type
  {6a61eb8b-523d-4608-a9aa-b2a3434f7e7f}, !- Construction Name
  {2f53ee26-7fba-47b7-86f6-1ca3874f16c0}, !- Space Name
  Outdoors,                               !- Outside Boundary Condition
  ,                                       !- Outside Boundary Condition Object
  SunExposed,                             !- Sun Exposure
  WindExposed,                            !- Wind Exposure
  ,                                       !- View Factor to Ground
  ,                                       !- Number of Vertices
  15.6365136527044, -0.538581714242879, 0.6096, !- X,Y,Z Vertex 1 {m}
  15.6365136527044, -0.538581714242879, 3.048, !- X,Y,Z Vertex 2 {m}
  15.6365136527044, -10.3074217142429, 3.048, !- X,Y,Z Vertex 3 {m}
  15.6365136527044, -10.3074217142429, 0.6096; !- X,Y,Z Vertex 4 {m}

OS:AdditionalProperties,
  {cc36efee-c8ed-473f-9b00-82d01930fa3e}, !- Handle
  {38016114-27e7-4345-98ed-934ea9c1739c}, !- Object Name
  Length,                                 !- Feature Name 1
  Double,                                 !- Feature Data Type 1
  32.049999999999997,                     !- Feature Value 1
  Azimuth,                                !- Feature Name 2