
OS:Version,
  {d3f7d1d4-3d2b-4a02-9165-57e7c99f0627}, !- Handle
  3.9.0;                                  !- Version Identifier

OS:SimulationControl,
  {54fd4f7f-0e10-4588-982e-814fe67ebd2e}, !- Handle
  ,                                       !- Do Zone Sizing Calculation
  ,                                       !- Do System Sizing Calculation
  ,                                       !- Do Plant Sizing Calculation
  No;                                     !- Run Simulation for Sizing Periods

OS:Timestep,
  {add63ff0-a704-47da-8ce2-129a73031f53}, !- Handle
  1;                                      !- Number of Timesteps per Hour

OS:ShadowCalculation,
  {214610bd-a3da-470c-b476-6aedc107f43b}, !- Handle
  PolygonClipping,                        !- Shading Calculation Method
  ,                                       !- Shading Calculation Update Frequency Method
  20,                                     !- Shading Calculation Update Frequency
  200,                                    !- Maximum Figures in Shadow Overlap Calculations
  ,                                       !- Polygon Clipping Algorithm
  512,                                    !- Pixel Counting Resolution
  ,                                       !- Sky Diffuse Modeling Algorithm
  No,                                     !- Output External Shading Calculation Results
  No,                                     !- Disable Self-Shading Within Shading Zone Groups
  No;                                     !- Disable Self-Shading From Shading Zone Groups to Other Zones

OS:SurfaceConvectionAlgorithm:Outside,
  {c7545cdd-2939-4270-a198-624965542070}, !- Handle
  DOE-2;                                  !- Algorithm

OS:SurfaceConvectionAlgorithm:Inside,
  {ec4d3072-b7a1-41f7-9cf9-f5696bd92f92}, !- Handle
  TARP;                                   !- Algorithm

OS:ZoneCapacitanceMultiplier:ResearchSpecial,
  {5c59cddc-207b-4401-b899-20097d2e3760}, !- Handle
  7,                                      !- Temperature Capacity Multiplier
  15,                                     !- Humidity Capacity Multiplier
  ;                                       !- Carbon Dioxide Capacity Multiplier

OS:ConvergenceLimits,
  {fbfb7f2b-f0ef-40d5-a42a-53e1d6b40505}, !- Handle
  0;                                      !- Minimum System Timestep {minutes}

OS:RunPeriod,
  {4f803eab-3f25-4aae-8f57-deb918bce274}, !- Handle
  Run Period 1,                           !- Name
  1,                                      !- Begin Month
  1,                                      !- Begin Day of Month
  12,                                     !- End Month
  31,                                     !- End Day of Month
  ,                                       !- Use Weather File Holidays and Special Days
  ,                                       !- Use Weather File Daylight Saving Period
  ,                                       !- Apply Weekend Holiday Rule
  ,                                       !- Use Weather File Rain Indicators
  ,                                       !- Use Weather File Snow Indicators
  ;                                       !- Number of Times Runperiod to be Repeated

OS:PerformancePrecisionTradeoffs,
  {4d3b552f-2fba-49ce-b53a-81f761aba35c}, !- Handle
  ,                                       !- Use Coil Direct Solutions
  CarrollMRT;                             !- Zone Radiant Exchange Algorithm

OS:WeatherFile,
  {724d531d-d32d-4a42-8724-4372dc32e98f}, !- Handle
  Buffalo Niagara Intl Ap,                !- City
  NY,                                     !- State Province Region
  USA,                                    !- Country
  TMY3,                                   !- Data Source
  725280,                                 !- WMO Number
  42.93,                                  !- Latitude {deg}
  -78.73,                                 !- Longitude {deg}
  -5,                                     !- Time Zone {hr}
  215,                                    !- Elevation {m}
  /Users/nmoore/github/urbanopt-example-geojson-project/example_project/weather/USA_NY_Buffalo-Greater.Buffalo.Intl.AP.725280_TMY3.epw, !- Url
  6B50E0FF,                               !- Checksum
  ,                                       !- Start Date Actual Year
  Sunday;                                 !- Start Day of Week

OS:YearDescription,
  {6fe83a04-d0da-48db-b228-e5cab4acc5c9}, !- Handle
  2007,                                   !- Calendar Year
  ,                                       !- Day of Week for Start Day
  ;                                       !- Is Leap Year

OS:Site,
  {5065c970-08f6-4f73-99b1-d2e06cab5b19}, !- Handle
  Buffalo Niagara Intl Ap_NY,             !- Name
  42.93,                                  !- Latitude {deg}
  -78.73,                                 !- Longitude {deg}
  -5,                                     !- Time Zone {hr}
  215,                                    !- Elevation {m}
  Suburbs,                                !- Terrain
  Yes;                                    !- Keep Site Location Information

OS:RunPeriodControl:DaylightSavingTime,
  {e26b37c3-019e-4d1e-a98d-2c1cf8763f65}, !- Handle
  Mar 12,                                 !- Start Date
  Nov 5;                                  !- End Date

OS:Site:GroundTemperature:Shallow,
  {2666468b-d51a-494d-8e87-fb9bb8f6cad8}, !- Handle
  4.30207395723828,                       !- January Surface Ground Temperature {C}
  2.29327249652502,                       !- February Surface Ground Temperature {C}
  2.13240047156047,                       !- March Surface Ground Temperature {C}
  3.08567940719286,                       !- April Surface Ground Temperature {C}
  6.91256312497526,                       !- May Surface Ground Temperature {C}
  10.7216195949507,                       !- June Surface Ground Temperature {C}
  14.0238679822574,                       !- July Surface Ground Temperature {C}
  16.1157611184724,                       !- August Surface Ground Temperature {C}
  16.2934789303462,                       !- September Surface Ground Temperature {C}
  14.5920754632847,                       !- October Surface Ground Temperature {C}
  11.374036348653,                        !- November Surface Ground Temperature {C}
  7.68182621661674;                       !- December Surface Ground Temperature {C}

OS:ThermalZone,
  {e1e4cffa-607a-4ddb-9803-5e8a070437c4}, !- Handle
  conditioned space,                      !- Name
  1,                                      !- Multiplier
  ,                                       !- Ceiling Height {m}
  346.03186535424,                        !- Volume {m3}
  ,                                       !- Floor Area {m2}
  ,                                       !- Zone Inside Convection Algorithm
  ,                                       !- Zone Outside Convection Algorithm
  ,                                       !- Zone Conditioning Equipment List Name
  {b8384f7d-15f4-4f8a-b3eb-b22ea865fd3a}, !- Zone Air Inlet Port List
  {60e79599-2d15-4439-8c4d-99876d0c61c1}, !- Zone Air Exhaust Port List
  {bf39ee29-18f2-4945-be2e-d519611a068b}, !- Zone Air Node Name
  {27f4ca46-c1bf-4de7-84ff-75a87d72c3d5}, !- Zone Return Air Port List
  ,                                       !- Primary Daylighting Control Name
  ,                                       !- Fraction of Zone Controlled by Primary Daylighting Control
  ,                                       !- Secondary Daylighting Control Name
  ,                                       !- Fraction of Zone Controlled by Secondary Daylighting Control
  ,                                       !- Illuminance Map Name
  ,                                       !- Group Rendering Name
  {21ecc85f-a5a1-439a-aa2f-282cad90965b}, !- Thermostat Name
  No;                                     !- Use Ideal Air Loads

OS:Node,
  {3985b47f-672e-4a13-9f8d-0a30d722b781}, !- Handle
  Node 1,                                 !- Name
  {bf39ee29-18f2-4945-be2e-d519611a068b}, !- Inlet Port
  ;                                       !- Outlet Port

OS:Connection,
  {bf39ee29-18f2-4945-be2e-d519611a068b}, !- Handle
  {e1e4cffa-607a-4ddb-9803-5e8a070437c4}, !- Source Object
  11,                                     !- Outlet Port
  {3985b47f-672e-4a13-9f8d-0a30d722b781}, !- Target Object
  2;                                      !- Inlet Port

OS:PortList,
  {b8384f7d-15f4-4f8a-b3eb-b22ea865fd3a}, !- Handle
  {e1e4cffa-607a-4ddb-9803-5e8a070437c4}, !- HVAC Component
  {7250b38e-dc44-40b9-b178-06e508c6e50c}; !- Port 1

OS:PortList,
  {60e79599-2d15-4439-8c4d-99876d0c61c1}, !- Handle
  {e1e4cffa-607a-4ddb-9803-5e8a070437c4}; !- HVAC Component

OS:PortList,
  {27f4ca46-c1bf-4de7-84ff-75a87d72c3d5}, !- Handle
  {e1e4cffa-607a-4ddb-9803-5e8a070437c4}, !- HVAC Component
  {ac7e2bf2-3613-4401-984a-21bed9466f52}; !- Port 1

OS:Sizing:Zone,
  {93854ec2-c3cf-4713-8f45-a0c9f2059ad2}, !- Handle
  {e1e4cffa-607a-4ddb-9803-5e8a070437c4}, !- Zone or ZoneList Name
  SupplyAirTemperature,                   !- Zone Cooling Design Supply Air Temperature Input Method
  14,                                     !- Zone Cooling Design Supply Air Temperature {C}
  11.11,                                  !- Zone Cooling Design Supply Air Temperature Difference {deltaC}
  SupplyAirTemperature,                   !- Zone Heating Design Supply Air Temperature Input Method
  40,                                     !- Zone Heating Design Supply Air Temperature {C}
  11.11,                                  !- Zone Heating Design Supply Air Temperature Difference {deltaC}
  0.0085,                                 !- Zone Cooling Design Supply Air Humidity Ratio {kg-H2O/kg-air}
  0.008,                                  !- Zone Heating Design Supply Air Humidity Ratio {kg-H2O/kg-air}
  ,                                       !- Zone Heating Sizing Factor
  ,                                       !- Zone Cooling Sizing Factor
  DesignDay,                              !- Cooling Design Air Flow Method
  ,                                       !- Cooling Design Air Flow Rate {m3/s}
  ,                                       !- Cooling Minimum Air Flow per Zone Floor Area {m3/s-m2}
  ,                                       !- Cooling Minimum Air Flow {m3/s}
  ,                                       !- Cooling Minimum Air Flow Fraction
  DesignDay,                              !- Heating Design Air Flow Method
  ,                                       !- Heating Design Air Flow Rate {m3/s}
  ,                                       !- Heating Maximum Air Flow per Zone Floor Area {m3/s-m2}
  ,                                       !- Heating Maximum Air Flow {m3/s}
  ,                                       !- Heating Maximum Air Flow Fraction
  No,                                     !- Account for Dedicated Outdoor Air System
  NeutralSupplyAir,                       !- Dedicated Outdoor Air System Control Strategy
  autosize,                               !- Dedicated Outdoor Air Low Setpoint Temperature for Design {C}
  autosize,                               !- Dedicated Outdoor Air High Setpoint Temperature for Design {C}
  Sensible Load Only No Latent Load,      !- Zone Load Sizing Method
  HumidityRatioDifference,                !- Zone Latent Cooling Design Supply Air Humidity Ratio Input Method
  ,                                       !- Zone Dehumidification Design Supply Air Humidity Ratio {kgWater/kgDryAir}
  0.005,                                  !- Zone Cooling Design Supply Air Humidity Ratio Difference {kgWater/kgDryAir}
  HumidityRatioDifference,                !- Zone Latent Heating Design Supply Air Humidity Ratio Input Method
  ,                                       !- Zone Humidification Design Supply Air Humidity Ratio {kgWater/kgDryAir}
  0.005,                                  !- Zone Humidification Design Supply Air Humidity Ratio Difference {kgWater/kgDryAir}
  ,                                       !- Zone Humidistat Dehumidification Set Point Schedule Name
  ,                                       !- Zone Humidistat Humidification Set Point Schedule Name
  ,                                       !- Design Zone Air Distribution Effectiveness in Cooling Mode
  ,                                       !- Design Zone Air Distribution Effectiveness in Heating Mode
  ,                                       !- Design Zone Secondary Recirculation Fraction {dimensionless}
  ,                                       !- Design Minimum Zone Ventilation Efficiency {dimensionless}
  Coincident;                             !- Sizing Option

OS:ZoneHVAC:EquipmentList,
  {ca3204d1-28bb-47c8-a713-d0c5b91b6234}, !- Handle
  Zone HVAC Equipment List 1,             !- Name
  {e1e4cffa-607a-4ddb-9803-5e8a070437c4}, !- Thermal Zone
  ,                                       !- Load Distribution Scheme
  {03bef0ea-1a8a-4a01-ab2c-36a250a681e8}, !- Zone Equipment 1
  1,                                      !- Zone Equipment Cooling Sequence 1
  1,                                      !- Zone Equipment Heating or No-Load Sequence 1
  {ade46d8d-041c-4dd7-b1f9-7187647382dd}, !- Zone Equipment Sequential Cooling Fraction Schedule Name 1
  {9391c55b-6d84-4bbd-9c0b-f0af97d933bf}; !- Zone Equipment Sequential Heating Fraction Schedule Name 1

OS:AdditionalProperties,
  {5aaf545c-6fb5-4518-a78b-bbfd96266508}, !- Handle
  {e1e4cffa-607a-4ddb-9803-5e8a070437c4}, !- Object Name
  ObjectType,                             !- Feature Name 1
  String,                                 !- Feature Data Type 1
  conditioned space;                      !- Feature Value 1

OS:Space,
  {6cda8bc8-da89-4c09-af41-20b476bd4562}, !- Handle
  conditioned space 1,                    !- Name
  ,                                       !- Space Type Name
  ,                                       !- Default Construction Set Name
  ,                                       !- Default Schedule Set Name
  ,                                       !- Direction of Relative North {deg}
  ,                                       !- X Origin {m}
  ,                                       !- Y Origin {m}
  ,                                       !- Z Origin {m}
  ,                                       !- Building Story Name
  {e1e4cffa-607a-4ddb-9803-5e8a070437c4}, !- Thermal Zone Name
  ,                                       !- Part of Total Floor Area
  ,                                       !- Design Specification Outdoor Air Object Name
  ,                                       !- Building Unit Name
  346.03186535424;                        !- Volume {m3}

OS:Schedule:Ruleset,
  {c26e8c62-8364-4b6a-b207-d1db78720c7c}, !- Handle
  heating setpoint,                       !- Name
  {171b0caf-eceb-4975-be24-d320cdac5319}, !- Schedule Type Limits Name
  {740d28cd-c1fc-4cdd-9076-d6800db3ce6e}; !- Default Day Schedule Name

OS:Schedule:Day,
  {740d28cd-c1fc-4cdd-9076-d6800db3ce6e}, !- Handle
  heating setpoint default day,           !- Name
  {171b0caf-eceb-4975-be24-d320cdac5319}, !- Schedule Type Limits Name
  ,                                       !- Interpolate to Timestep
  24,                                     !- Hour 1
  0,                                      !- Minute 1
  0;                                      !- Value Until Time 1

OS:Schedule:Rule,
  {ce92c331-9172-4095-9eb1-9d590b467f76}, !- Handle
  heating setpoint allday rule,           !- Name
  {c26e8c62-8364-4b6a-b207-d1db78720c7c}, !- Schedule Ruleset Name
  0,                                      !- Rule Order
  {a8d6656f-7133-4c64-9260-ddbc3e43dde6}, !- Day Schedule Name
  Yes,                                    !- Apply Sunday
  Yes,                                    !- Apply Monday
  Yes,                                    !- Apply Tuesday
  Yes,                                    !- Apply Wednesday
  Yes,                                    !- Apply Thursday
  Yes,                                    !- Apply Friday
  Yes,                                    !- Apply Saturday
  DateRange,                              !- Date Specification Type
  1,                                      !- Start Month
  1,                                      !- Start Day
  12,                                     !- End Month
  31;                                     !- End Day

OS:Schedule:Day,
  {a8d6656f-7133-4c64-9260-ddbc3e43dde6}, !- Handle
  heating setpoint day,                   !- Name
  {171b0caf-eceb-4975-be24-d320cdac5319}, !- Schedule Type Limits Name
  ,                                       !- Interpolate to Timestep
  24,                                     !- Hour 1
  0,                                      !- Minute 1
  20;                                     !- Value Until Time 1

OS:Schedule:Ruleset,
  {f1e2531d-57db-4811-b9b2-561e9700a58a}, !- Handle
  cooling setpoint,                       !- Name
  {171b0caf-eceb-4975-be24-d320cdac5319}, !- Schedule Type Limits Name
  {0187307e-7e28-49dc-beaa-4e24fe2ee9cc}; !- Default Day Schedule Name

OS:Schedule:Day,
  {0187307e-7e28-49dc-beaa-4e24fe2ee9cc}, !- Handle
  cooling setpoint default day,           !- Name
  {171b0caf-eceb-4975-be24-d320cdac5319}, !- Schedule Type Limits Name
  ,                                       !- Interpolate to Timestep
  24,                                     !- Hour 1
  0,                                      !- Minute 1
  0;                                      !- Value Until Time 1

OS:Schedule:Rule,
  {2b835f2b-b840-4909-9731-fd5fb09c5e57}, !- Handle
  cooling setpoint allday rule,           !- Name
  {f1e2531d-57db-4811-b9b2-561e9700a58a}, !- Schedule Ruleset Name
  0,                                      !- Rule Order
  {4286c1e8-b559-45fa-ace5-9e477761342a}, !- Day Schedule Name
  Yes,                                    !- Apply Sunday
  Yes,                                    !- Apply Monday
  Yes,                                    !- Apply Tuesday
  Yes,                                    !- Apply Wednesday
  Yes,                                    !- Apply Thursday
  Yes,                                    !- Apply Friday
  Yes,                                    !- Apply Saturday
  DateRange,                              !- Date Specification Type
  1,                                      !- Start Month
  1,                                      !- Start Day
  12,                                     !- End Month
  31;                                     !- End Day

OS:Schedule:Day,
  {4286c1e8-b559-45fa-ace5-9e477761342a}, !- Handle
  cooling setpoint day,                   !- Name
  {171b0caf-eceb-4975-be24-d320cdac5319}, !- Schedule Type Limits Name
  ,                                       !- Interpolate to Timestep
  24,                                     !- Hour 1
  0,                                      !- Minute 1
  25.5555555555556;                       !- Value Until Time 1

OS:ThermostatSetpoint:DualSetpoint,
  {21ecc85f-a5a1-439a-aa2f-282cad90965b}, !- Handle
  conditioned space temperature setpoint, !- Name
  {c26e8c62-8364-4b6a-b207-d1db78720c7c}, !- Heating Setpoint Temperature Schedule Name
  {f1e2531d-57db-4811-b9b2-561e9700a58a}, !- Cooling Setpoint Temperature Schedule Name
  0;                                      !- Temperature Difference Between Cutout And Setpoint {deltaC}

OS:ScheduleTypeLimits,
  {171b0caf-eceb-4975-be24-d320cdac5319}, !- Handle
  Temperature,                            !- Name
  ,                                       !- Lower Limit Value
  ,                                       !- Upper Limit Value
  Continuous,                             !- Numeric Type
  Temperature;                            !- Unit Type

OS:Surface,
  {b9855235-bfe4-4d50-8a55-c557675da42d}, !- Handle
  Wall1,                                  !- Name
  Wall,                                   !- Surface Type
  {84967553-763b-48ee-8d8c-937e7edde3e0}, !- Construction Name
  {6cda8bc8-da89-4c09-af41-20b476bd4562}, !- Space Name
  Outdoors,                               !- Outside Boundary Condition
  ,                                       !- Outside Boundary Condition Object
  SunExposed,                             !- Sun Exposure
  WindExposed,                            !- Wind Exposure
  ,                                       !- View Factor to Ground
  ,                                       !- Number of Vertices
  -4.95193308575712, 6.96193691424288, 0, !- X,Y,Z Vertex 1 {m}
  -4.95193308575712, 6.96193691424288, 2.4384, !- X,Y,Z Vertex 2 {m}
  6.96193691424288, 6.96193691424288, 2.4384, !- X,Y,Z Vertex 3 {m}
  6.96193691424288, 6.96193691424288, 0;  !- X,Y,Z Vertex 4 {m}

OS:AdditionalProperties,
  {c59db100-32a3-42df-9886-8552371b851a}, !- Handle
  {b9855235-bfe4-4d50-8a55-c557675da42d}, !- Object Name
  Length,                                 !- Feature Name 1
  Double,                                 !- Feature Data Type 1
  39.087499999999999,                     !- Feature Value 1
  Azimuth,                                !- Feature Name 2
  Integer,                                !- Feature Data Type 2
  0,                                      !- Feature Value 2
  Tilt,                                   !- Feature Name 3
  Double,                                 !- Feature Data Type 3
  90,                                     !- Feature Value 3
  SurfaceType,                            !- Feature Name 4
  String,                                 !- Feature Data Type 4
  Wall;                                   !- Feature Value 4

OS:Material,
  {8e59f52b-5a7e-4e34-8494-0864de99fdc7}, !- Handle
  wood siding,                            !- Name
  Rough,                                  !- Roughness
  0.0254,                                 !- Thickness {m}
  0.1024175,                              !- Conductivity {W/m-K}
  544.68,                                 !- Density {kg/m3}
  1172.36,                                !- Specific Heat {J/kg-K}
  0.9,                                    !- Thermal Absorptance
  0.7,                                    !- Solar Absorptance
  0.7;                                    !- Visible Absorptance

OS:Material,
  {e8587cef-691d-4e14-b006-3b48fd7b6b09}, !- Handle
  osb sheathing 0.5 in.,                  !- Name
  Rough,                                  !- Roughness
  0.0127,                                 !- Thickness {m}
  0.1154577,                              !- Conductivity {W/m-K}
  512.64,                                 !- Density {kg/m3}
  1214.23,                                !- Specific Heat {J/kg-K}
  0.9,                                    !- Thermal Absorptance
  0.7,                                    !- Solar Absorptance
  0.7;                                    !- Visible Absorptance

OS:Material,
  {5f955777-1b2d-4068-afc4-7a1bfa8da127}, !- Handle
  wall stud and cavity,                   !- Name
  Rough,                                  !- Roughness
  0.1397,                                 !- Thickness {m}
  0.0929021674204099,                     !- Conductivity {W/m-K}
  139.0536,                               !- Density {kg/m3}
  1170.23755760369,                       !- Specific Heat {J/kg-K}
  0.9,                                    !- Thermal Absorptance
  0.7,                                    !- Solar Absorptance
  0.7;                                    !- Visible Absorptance

OS:Material,
  {fc0888a7-df80-4978-944a-5054d3cb90a2}, !- Handle
  gypsum board,                           !- Name
  Rough,                                  !- Roughness
  0.0127,                                 !- Thickness {m}
  0.1602906,                              !- Conductivity {W/m-K}
  801,                                    !- Density {kg/m3}
  837.4,                                  !- Specific Heat {J/kg-K}
  0.9,                                    !- Thermal Absorptance
  0.6,                                    !- Solar Absorptance
  0.6;                                    !- Visible Absorptance

OS:Construction,
  {84967553-763b-48ee-8d8c-937e7edde3e0}, !- Handle
  Wall1 construction,                     !- Name
  ,                                       !- Surface Rendering Name
  {8e59f52b-5a7e-4e34-8494-0864de99fdc7}, !- Layer 1
  {e8587cef-691d-4e14-b006-3b48fd7b6b09}, !- Layer 2
  {5f955777-1b2d-4068-afc4-7a1bfa8da127}, !- Layer 3
  {fc0888a7-df80-4978-944a-5054d3cb90a2}; !- Layer 4

OS:Surface,
  {28221987-ddf1-413b-ac58-5516e24322d0}, !- Handle
  Wall2,                                  !- Name
  Wall,                                   !- Surface Type
  {9987bc6e-935d-4b27-92c5-053417cf9742}, !- Construction Name
  {6cda8bc8-da89-4c09-af41-20b476bd4562}, !- Space Name
  Outdoors,                               !- Outside Boundary Condition
  ,                                       !- Outside Boundary Condition Object
  SunExposed,                             !- Sun Exposure
  WindExposed,                            !- Wind Exposure
  ,                                       !- View Factor to Ground
  ,                                       !- Number of Vertices
  6.96193691424288, -1.00690691424288, 0, !- X,Y,Z Vertex 1 {m}
  6.96193691424288, -1.00690691424288, 2.4384, !- X,Y,Z Vertex 2 {m}
  6.96193691424288, -6.96193691424288, 2.4384, !- X,Y,Z Vertex 3 {m}
  6.96193691424288, -6.96193691424288, 0; !- X,Y,Z Vertex 4 {m}

OS:AdditionalProperties,
  {9871d5d1-7bfd-434e-b027-8abdd508b349}, !- Handle
  {28221987-ddf1-413b-ac58-5516e24322d0}, !- Object Name
  Length,                                 !- Feature Name 1
  Double,                                 !- Feature Data Type 1
  19.537500000000001,                     !- Feature Value 1
  Azimuth,                                !- Feature Name 2
  Integer,                                !- Feature Data Type 2
  90,                                     !- Feature Value 2
  Tilt,                                   !- Feature Name 3
  Double,                                 !- Feature Data Type 3
  90,                                     !- Feature Value 3
  SurfaceType,                            !- Feature Name 4
  String,                                 !- Feature Data Type 4
  Wall;                                   !- Feature Value 4

OS:Construction,
  {9987bc6e-935d-4b27-92c5-053417cf9742}, !- Handle
  Wall2 construction,                     !- Name
  ,                                       !- Surface Rendering Name
  {8e59f52b-5a7e-4e34-8494-0864de99fdc7}, !- Layer 1
  {e8587cef-691d-4e14-b006-3b48fd7b6b09}, !- Layer 2
  {5f955777-1b2d-4068-afc4-7a1bfa8da127}, !- Layer 3
  {fc0888a7-df80-4978-944a-5054d3cb90a2}; !- Layer 4

OS:Surface,
  {64c8d53a-5fcc-4d21-a55b-90fbd7ea50ff}, !- Handle
  Wall3,                                  !- Name
  Wall,                                   !- Surface Type
  {49737606-e97d-4edf-b027-fbbeaa6719c2}, !- Construction Name
  {6cda8bc8-da89-4c09-af41-20b476bd4562}, !- Space Name
  Outdoors,                               !- Outside Boundary Condition
  ,                                       !- Outside Boundary Condition Object
  SunExposed,                             !- Sun Exposure
  WindExposed,                            !- Wind Exposure
  ,                                       !- View Factor to Ground
  ,                                       !- Number of Vertices
  6.03290651424288, -6.96193691424288, 0, !- X,Y,Z Vertex 1 {m}
  6.03290651424288, -6.96193691424288, 2.4384, !- X,Y,Z Vertex 2 {m}
  -5.11896348575712, -6.96193691424288, 2.4384, !- X,Y,Z Vertex 3 {m}
  -5.11896348575712, -6.96193691424288, 0; !- X,Y,Z Vertex 4 {m}

OS:AdditionalProperties,
  {25eb5002-e37f-425a-9e5a-80230034db34}, !- Handle
  {64c8d53a-5fcc-4d21-a55b-90fbd7ea50ff}, !- Object Name
  Length,                                 !- Feature Name 1
  Double,                                 !- Feature Data Type 1
  36.587499999999999,                     !- Feature Value 1
  Azimuth,                                !- Feature Name 2
  Integer,                                !- Feature Data Type 2
  180,                                    !- Feature Value 2
  Tilt,                                   !- Feature Name 3
  Double,                                 !- Feature Data Type 3
  90,                                     !- Feature Value 3
  SurfaceType,                            !- Feature Name 4
  String,                                 !- Feature Data Type 4
  Wall;                                   !- Feature Value 4

OS:Construction,
  {49737606-e97d-4edf-b027-fbbeaa6719c2}, !- Handle
  Wall3 construction,                     !- Name
  ,                                       !- Surface Rendering Name
  {8e59f52b-5a7e-4e34-8494-0864de99fdc7}, !- Layer 1
  {e8587cef-691d-4e14-b006-3b48fd7b6b09}, !- Layer 2
  {5f955777-1b2d-4068-afc4-7a1bfa8da127}, !- Layer 3
  {fc0888a7-df80-4978-944a-5054d3cb90a2}; !- Layer 4

OS:Surface,
  {5aa26cab-7eb4-4eef-9fa4-c88e93b3e036}, !- Handle
  Wall4,                                  !- Name
  Wall,                                   !- Surface Type
  {5cb83b04-49cd-4355-ad02-02528819a9c7}, !- Construction Name
  {6cda8bc8-da89-4c09-af41-20b476bd4562}, !- Space Name
  Outdoors,                               !- Outside Boundary Condition
  ,                                       !- Outside Boundary Condition Object
  SunExposed,                             !- Sun Exposure
  WindExposed,                            !- Wind Exposure
  ,                                       !- View Factor to Ground
  ,                                       !- Number of Vertices
  -6.96193691424288, 1.00690691424288, 0, !- X,Y,Z Vertex 1 {m}
  -6.96193691424288, 1.00690691424288, 2.4384, !- X,Y,Z Vertex 2 {m}
  -6.96193691424288, 6.96193691424288, 2.4384, !- X,Y,Z Vertex 3 {m}
  -6.96193691424288, 6.96193691424288, 0; !- X,Y,Z Vertex 4 {m}

OS:AdditionalProperties,
  {0db82d26-58e2-46d8-8922-2ae22f959cd8}, !- Handle
  {5aa26cab-7eb4-4eef-9fa4-c88e93b3e036}, !- Object Name