
OS:Version,
  {00ebc2b4-0209-468b-bae5-58f7876ecb77}, !- Handle
  3.10.0;                                 !- Version Identifier

OS:SimulationControl,
  {f5294196-f606-4b57-a483-dbbf55c21124}, !- Handle
  ,                                       !- Do Zone Sizing Calculation
  ,                                       !- Do System Sizing Calculation
  ,                                       !- Do Plant Sizing Calculation
  No;                                     !- Run Simulation for Sizing Periods

OS:Timestep,
  {55cbdd81-3f76-42b8-966a-df5acb274adf}, !- Handle
  1;                                      !- Number of Timesteps per Hour

OS:ShadowCalculation,
  {d82ccae4-0f50-4fba-9f78-4527841329b9}, !- Handle
  PolygonClipping,                        !- Shading Calculation Method
  ,                                       !- Shading Calculation Update Frequency Method
  20,                                     !- Shading Calculation Update Frequency
  200,                                    !- Maximum Figures in Shadow Overlap Calculations
  ,                                       !- Polygon Clipping Algorithm
  512,                                    !- Pixel Counting Resolution
  ,                                       !- Sky Diffuse Modeling Algorithm
  No,                                     !- Output External Shading Calculation Results
  No,                                     !- Disable Self-Shading Within Shading Zone Groups
  No;                                     !- Disable Self-Shading From Shading Zone Groups to Other Zones

OS:SurfaceConvectionAlgorithm:Outside,
  {4a482c3a-f4c3-4850-b705-cd69183290cb}, !- Handle
  DOE-2;                                  !- Algorithm

OS:SurfaceConvectionAlgorithm:Inside,
  {9747d31f-3d1a-41fe-a972-050e8aa0c00e}, !- Handle
  TARP;                                   !- Algorithm

OS:ZoneCapacitanceMultiplier:ResearchSpecial,
  {c814ab2a-b117-4e1f-ae00-7929d64aef45}, !- Handle
  7,                                      !- Temperature Capacity Multiplier
  15,                                     !- Humidity Capacity Multiplier
  ;                                       !- Carbon Dioxide Capacity Multiplier

OS:ConvergenceLimits,
  {6f2fadc0-96cd-4123-a162-de2337c5454d}, !- Handle
  0;                                      !- Minimum System Timestep {minutes}

OS:RunPeriod,
  {eed52543-ec71-46be-9fad-b557937e9040}, !- Handle
  Run Period 1,                           !- Name
  1,                                      !- Begin Month
  1,                                      !- Begin Day of Month
  12,                                     !- End Month
  31,                                     !- End Day of Month
  ,                                       !- Use Weather File Holidays and Special Days
  ,                                       !- Use Weather File Daylight Saving Period
  ,                                       !- Apply Weekend Holiday Rule
  ,                                       !- Use Weather File Rain Indicators
  ,                                       !- Use Weather File Snow Indicators
  ;                                       !- Number of Times Runperiod to be Repeated

OS:PerformancePrecisionTradeoffs,
  {70e4b1be-fcd2-456f-97db-a4292f14829a}, !- Handle
  ,                                       !- Use Coil Direct Solutions
  CarrollMRT;                             !- Zone Radiant Exchange Algorithm

OS:WeatherFile,
  {a0b0f846-1377-4ece-867c-dc1db5855cea}, !- Handle
  Buffalo Niagara Intl Ap,                !- City
  NY,                                     !- State Province Region
  USA,                                    !- Country
  TMY3,                                   !- Data Source
  725280,                                 !- WMO Number
  42.93,                                  !- Latitude {deg}
  -78.73,                                 !- Longitude {deg}
  -5,                                     !- Time Zone {hr}
  215,                                    !- Elevation {m}
  /Users/nmoore/github/urbanopt-example-geojson-project/example_project/weather/USA_NY_Buffalo-Greater.Buffalo.Intl.AP.725280_TMY3.epw, !- Url
  6B50E0FF,                               !- Checksum
  ,                                       !- Start Date Actual Year
  Sunday;                                 !- Start Day of Week

OS:YearDescription,
  {74231400-1103-438c-84e7-b7c8de22fac1}, !- Handle
  2007,                                   !- Calendar Year
  ,                                       !- Day of Week for Start Day
  ;                                       !- Is Leap Year

OS:Site,
  {07ff5730-41a5-4111-9e53-ba729573f295}, !- Handle
  Buffalo Niagara Intl Ap_NY,             !- Name
  42.93,                                  !- Latitude {deg}
  -78.73,                                 !- Longitude {deg}
  -5,                                     !- Time Zone {hr}
  215,                                    !- Elevation {m}
  Suburbs,                                !- Terrain
  Yes;                                    !- Keep Site Location Information

OS:RunPeriodControl:DaylightSavingTime,
  {3a9234b6-d56e-48f5-8a3e-15c040055a3a}, !- Handle
  Mar 12,                                 !- Start Date
  Nov 5;                                  !- End Date

OS:Site:GroundTemperature:Shallow,
  {3f06b8b1-0b60-4163-8458-cb5cff69d84e}, !- Handle
  4.30207395723828,                       !- January Surface Ground Temperature {C}
  2.29327249652502,                       !- February Surface Ground Temperature {C}
  2.13240047156047,                       !- March Surface Ground Temperature {C}
  3.08567940719286,                       !- April Surface Ground Temperature {C}
  6.91256312497526,                       !- May Surface Ground Temperature {C}
  10.7216195949507,                       !- June Surface Ground Temperature {C}
  14.0238679822574,                       !- July Surface Ground Temperature {C}
  16.1157611184724,                       !- August Surface Ground Temperature {C}
  16.2934789303462,                       !- September Surface Ground Temperature {C}
  14.5920754632847,                       !- October Surface Ground Temperature {C}
  11.374036348653,                        !- November Surface Ground Temperature {C}
  7.68182621661674;                       !- December Surface Ground Temperature {C}

OS:ThermalZone,
  {87b04a08-f7f5-48b0-89ef-e5f1e9238586}, !- Handle
  conditioned space,                      !- Name
  1,                                      !- Multiplier
  ,                                       !- Ceiling Height {m}
  346.03186535424,                        !- Volume {m3}
  ,                                       !- Floor Area {m2}
  ,                                       !- Zone Inside Convection Algorithm
  ,                                       !- Zone Outside Convection Algorithm
  ,                                       !- Zone Conditioning Equipment List Name
  {12f017be-b7dd-4928-bae4-2d71ab9b6835}, !- Zone Air Inlet Port List
  {9a97b997-1cd2-442d-9565-0c5a2a0bb52b}, !- Zone Air Exhaust Port List
  {57bb1db9-07ce-4956-8830-c925bfb1596d}, !- Zone Air Node Name
  {ffa624ff-a954-4ec2-9da8-1825a36966c0}, !- Zone Return Air Port List
  ,                                       !- Primary Daylighting Control Name
  ,                                       !- Fraction of Zone Controlled by Primary Daylighting Control
  ,                                       !- Secondary Daylighting Control Name
  ,                                       !- Fraction of Zone Controlled by Secondary Daylighting Control
  ,                                       !- Illuminance Map Name
  ,                                       !- Group Rendering Name
  {38b82d76-3fff-496b-b47d-9be0b5e2a94b}, !- Thermostat Name
  No;                                     !- Use Ideal Air Loads

OS:Node,
  {4ec136ce-d96b-46a2-ab68-78fd7af4ca52}, !- Handle
  Node 1,                                 !- Name
  {57bb1db9-07ce-4956-8830-c925bfb1596d}, !- Inlet Port
  ;                                       !- Outlet Port

OS:Connection,
  {57bb1db9-07ce-4956-8830-c925bfb1596d}, !- Handle
  {87b04a08-f7f5-48b0-89ef-e5f1e9238586}, !- Source Object
  11,                                     !- Outlet Port
  {4ec136ce-d96b-46a2-ab68-78fd7af4ca52}, !- Target Object
  2;                                      !- Inlet Port

OS:PortList,
  {12f017be-b7dd-4928-bae4-2d71ab9b6835}, !- Handle
  {87b04a08-f7f5-48b0-89ef-e5f1e9238586}, !- HVAC Component
  {d93a1df1-c3b2-4922-80f2-a1fcf7e7f934}; !- Port 1

OS:PortList,
  {9a97b997-1cd2-442d-9565-0c5a2a0bb52b}, !- Handle
  {87b04a08-f7f5-48b0-89ef-e5f1e9238586}; !- HVAC Component

OS:PortList,
  {ffa624ff-a954-4ec2-9da8-1825a36966c0}, !- Handle
  {87b04a08-f7f5-48b0-89ef-e5f1e9238586}, !- HVAC Component
  {1f7af656-8917-471c-acf8-3b9b5961ef94}; !- Port 1

OS:Sizing:Zone,
  {d518f985-a7df-414d-975b-dd1221b69b04}, !- Handle
  {87b04a08-f7f5-48b0-89ef-e5f1e9238586}, !- Zone or ZoneList Name
  SupplyAirTemperature,                   !- Zone Cooling Design Supply Air Temperature Input Method
  14,                                     !- Zone Cooling Design Supply Air Temperature {C}
  11.11,                                  !- Zone Cooling Design Supply Air Temperature Difference {deltaC}
  SupplyAirTemperature,                   !- Zone Heating Design Supply Air Temperature Input Method
  40,                                     !- Zone Heating Design Supply Air Temperature {C}
  11.11,                                  !- Zone Heating Design Supply Air Temperature Difference {deltaC}
  0.0085,                                 !- Zone Cooling Design Supply Air Humidity Ratio {kg-H2O/kg-air}
  0.008,                                  !- Zone Heating Design Supply Air Humidity Ratio {kg-H2O/kg-air}
  ,                                       !- Zone Heating Sizing Factor
  ,                                       !- Zone Cooling Sizing Factor
  DesignDay,                              !- Cooling Design Air Flow Method
  ,                                       !- Cooling Design Air Flow Rate {m3/s}
  ,                                       !- Cooling Minimum Air Flow per Zone Floor Area {m3/s-m2}
  ,                                       !- Cooling Minimum Air Flow {m3/s}
  ,                                       !- Cooling Minimum Air Flow Fraction
  DesignDay,                              !- Heating Design Air Flow Method
  ,                                       !- Heating Design Air Flow Rate {m3/s}
  ,                                       !- Heating Maximum Air Flow per Zone Floor Area {m3/s-m2}
  ,                                       !- Heating Maximum Air Flow {m3/s}
  ,                                       !- Heating Maximum Air Flow Fraction
  No,                                     !- Account for Dedicated Outdoor Air System
  NeutralSupplyAir,                       !- Dedicated Outdoor Air System Control Strategy
  autosize,                               !- Dedicated Outdoor Air Low Setpoint Temperature for Design {C}
  autosize,                               !- Dedicated Outdoor Air High Setpoint Temperature for Design {C}
  Sensible Load Only No Latent Load,      !- Zone Load Sizing Method
  HumidityRatioDifference,                !- Zone Latent Cooling Design Supply Air Humidity Ratio Input Method
  ,                                       !- Zone Dehumidification Design Supply Air Humidity Ratio {kgWater/kgDryAir}
  0.005,                                  !- Zone Cooling Design Supply Air Humidity Ratio Difference {kgWater/kgDryAir}
  HumidityRatioDifference,                !- Zone Latent Heating Design Supply Air Humidity Ratio Input Method
  ,                                       !- Zone Humidification Design Supply Air Humidity Ratio {kgWater/kgDryAir}
  0.005,                                  !- Zone Humidification Design Supply Air Humidity Ratio Difference {kgWater/kgDryAir}
  ,                                       !- Zone Humidistat Dehumidification Set Point Schedule Name
  ,                                       !- Zone Humidistat Humidification Set Point Schedule Name
  ,                                       !- Design Zone Air Distribution Effectiveness in Cooling Mode
  ,                                       !- Design Zone Air Distribution Effectiveness in Heating Mode
  ,                                       !- Design Zone Secondary Recirculation Fraction {dimensionless}
  ,                                       !- Design Minimum Zone Ventilation Efficiency {dimensionless}
  Coincident;                             !- Sizing Option

OS:ZoneHVAC:EquipmentList,
  {91e83ce8-8221-44b2-bc57-f055268e894f}, !- Handle
  Zone HVAC Equipment List 1,             !- Name
  {87b04a08-f7f5-48b0-89ef-e5f1e9238586}, !- Thermal Zone
  ,                                       !- Load Distribution Scheme
  {62a8bc2f-75df-4488-bc0d-fca63fac7021}, !- Zone Equipment 1
  1,                                      !- Zone Equipment Cooling Sequence 1
  1,                                      !- Zone Equipment Heating or No-Load Sequence 1
  {e9091ed7-0046-42b7-944c-cda65dad8c14}, !- Zone Equipment Sequential Cooling Fraction Schedule Name 1
  {0e53ceb6-c26c-40ab-8968-10a7a14c445d}; !- Zone Equipment Sequential Heating Fraction Schedule Name 1

OS:AdditionalProperties,
  {41b2f8f5-7bfe-45bf-a212-154510f327d9}, !- Handle
  {87b04a08-f7f5-48b0-89ef-e5f1e9238586}, !- Object Name
  ObjectType,                             !- Feature Name 1
  String,                                 !- Feature Data Type 1
  conditioned space;                      !- Feature Value 1

OS:Space,
  {c28ddd69-3700-458e-8379-94ae094015b0}, !- Handle
  conditioned space 1,                    !- Name
  ,                                       !- Space Type Name
  ,                                       !- Default Construction Set Name
  ,                                       !- Default Schedule Set Name
  ,                                       !- Direction of Relative North {deg}
  ,                                       !- X Origin {m}
  ,                                       !- Y Origin {m}
  ,                                       !- Z Origin {m}
  ,                                       !- Building Story Name
  {87b04a08-f7f5-48b0-89ef-e5f1e9238586}, !- Thermal Zone Name
  ,                                       !- Part of Total Floor Area
  ,                                       !- Design Specification Outdoor Air Object Name
  ,                                       !- Building Unit Name
  346.03186535424;                        !- Volume {m3}

OS:Schedule:Ruleset,
  {7de1c2aa-a5cc-48e2-8c8c-0322e33897d2}, !- Handle
  heating setpoint,                       !- Name
  {a482f972-d868-49d8-92d6-9ba6f8c9b4dc}, !- Schedule Type Limits Name
  {7e1da4e5-c73e-4c00-aa3b-67c7c152fad1}; !- Default Day Schedule Name

OS:Schedule:Day,
  {7e1da4e5-c73e-4c00-aa3b-67c7c152fad1}, !- Handle
  heating setpoint default day,           !- Name
  {a482f972-d868-49d8-92d6-9ba6f8c9b4dc}, !- Schedule Type Limits Name
  ,                                       !- Interpolate to Timestep
  24,                                     !- Hour 1
  0,                                      !- Minute 1
  0;                                      !- Value Until Time 1

OS:Schedule:Rule,
  {523b1413-fb5f-4be0-868d-b0429ea9f007}, !- Handle
  heating setpoint allday rule,           !- Name
  {7de1c2aa-a5cc-48e2-8c8c-0322e33897d2}, !- Schedule Ruleset Name
  0,                                      !- Rule Order
  {3a01906c-8222-4d56-a1f3-de192973a66c}, !- Day Schedule Name
  Yes,                                    !- Apply Sunday
  Yes,                                    !- Apply Monday
  Yes,                                    !- Apply Tuesday
  Yes,                                    !- Apply Wednesday
  Yes,                                    !- Apply Thursday
  Yes,                                    !- Apply Friday
  Yes,                                    !- Apply Saturday
  DateRange,                              !- Date Specification Type
  1,                                      !- Start Month
  1,                                      !- Start Day
  12,                                     !- End Month
  31;                                     !- End Day

OS:Schedule:Day,
  {3a01906c-8222-4d56-a1f3-de192973a66c}, !- Handle
  heating setpoint day,                   !- Name
  {a482f972-d868-49d8-92d6-9ba6f8c9b4dc}, !- Schedule Type Limits Name
  ,                                       !- Interpolate to Timestep
  24,                                     !- Hour 1
  0,                                      !- Minute 1
  20;                                     !- Value Until Time 1

OS:Schedule:Ruleset,
  {87ff023a-cafd-4c8c-837d-53b4bb21b81b}, !- Handle
  cooling setpoint,                       !- Name
  {a482f972-d868-49d8-92d6-9ba6f8c9b4dc}, !- Schedule Type Limits Name
  {6747f17f-b6c8-4b2b-9e58-71637d4024d0}; !- Default Day Schedule Name

OS:Schedule:Day,
  {6747f17f-b6c8-4b2b-9e58-71637d4024d0}, !- Handle
  cooling setpoint default day,           !- Name
  {a482f972-d868-49d8-92d6-9ba6f8c9b4dc}, !- Schedule Type Limits Name
  ,                                       !- Interpolate to Timestep
  24,                                     !- Hour 1
  0,                                      !- Minute 1
  0;                                      !- Value Until Time 1

OS:Schedule:Rule,
  {f75c4d79-1c8a-43b9-978d-abf31424a6e2}, !- Handle
  cooling setpoint allday rule,           !- Name
  {87ff023a-cafd-4c8c-837d-53b4bb21b81b}, !- Schedule Ruleset Name
  0,                                      !- Rule Order
  {147118f2-992f-4167-8413-fa5e8d098ca4}, !- Day Schedule Name
  Yes,                                    !- Apply Sunday
  Yes,                                    !- Apply Monday
  Yes,                                    !- Apply Tuesday
  Yes,                                    !- Apply Wednesday
  Yes,                                    !- Apply Thursday
  Yes,                                    !- Apply Friday
  Yes,                                    !- Apply Saturday
  DateRange,                              !- Date Specification Type
  1,                                      !- Start Month
  1,                                      !- Start Day
  12,                                     !- End Month
  31;                                     !- End Day

OS:Schedule:Day,
  {147118f2-992f-4167-8413-fa5e8d098ca4}, !- Handle
  cooling setpoint day,                   !- Name
  {a482f972-d868-49d8-92d6-9ba6f8c9b4dc}, !- Schedule Type Limits Name
  ,                                       !- Interpolate to Timestep
  24,                                     !- Hour 1
  0,                                      !- Minute 1
  25.5555555555556;                       !- Value Until Time 1

OS:ThermostatSetpoint:DualSetpoint,
  {38b82d76-3fff-496b-b47d-9be0b5e2a94b}, !- Handle
  conditioned space temperature setpoint, !- Name
  {7de1c2aa-a5cc-48e2-8c8c-0322e33897d2}, !- Heating Setpoint Temperature Schedule Name
  {87ff023a-cafd-4c8c-837d-53b4bb21b81b}, !- Cooling Setpoint Temperature Schedule Name
  0;                                      !- Temperature Difference Between Cutout And Setpoint {deltaC}

OS:ScheduleTypeLimits,
  {a482f972-d868-49d8-92d6-9ba6f8c9b4dc}, !- Handle
  Temperature,                            !- Name
  ,                                       !- Lower Limit Value
  ,                                       !- Upper Limit Value
  Continuous,                             !- Numeric Type
  Temperature;                            !- Unit Type

OS:Surface,
  {383640ee-95ca-4e80-bdcd-bad534c04566}, !- Handle
  Wall1,                                  !- Name
  Wall,                                   !- Surface Type
  {746d089c-0900-4d3d-8850-03bafe06a1c8}, !- Construction Name
  {c28ddd69-3700-458e-8379-94ae094015b0}, !- Space Name
  Outdoors,                               !- Outside Boundary Condition
  ,                                       !- Outside Boundary Condition Object
  SunExposed,                             !- Sun Exposure
  WindExposed,                            !- Wind Exposure
  ,                                       !- View Factor to Ground
  ,                                       !- Number of Vertices
  -4.95193308575712, 6.96193691424288, 0, !- X,Y,Z Vertex 1 {m}
  -4.95193308575712, 6.96193691424288, 2.4384, !- X,Y,Z Vertex 2 {m}
  6.96193691424288, 6.96193691424288, 2.4384, !- X,Y,Z Vertex 3 {m}
  6.96193691424288, 6.96193691424288, 0;  !- X,Y,Z Vertex 4 {m}

OS:AdditionalProperties,
  {c52be831-d9d1-4528-a634-fc2764856b9c}, !- Handle
  {383640ee-95ca-4e80-bdcd-bad534c04566}, !- Object Name
  Length,                                 !- Feature Name 1
  Double,                                 !- Feature Data Type 1
  39.087499999999999,                     !- Feature Value 1
  Azimuth,                                !- Feature Name 2
  Integer,                                !- Feature Data Type 2
  0,                                      !- Feature Value 2
  Tilt,                                   !- Feature Name 3
  Double,                                 !- Feature Data Type 3
  90,                                     !- Feature Value 3
  SurfaceType,                            !- Feature Name 4
  String,                                 !- Feature Data Type 4
  Wall;                                   !- Feature Value 4

OS:Material,
  {f0864064-cc12-43cb-a749-7d28c31d75f2}, !- Handle
  wood siding,                            !- Name
  Rough,                                  !- Roughness
  0.0254,                                 !- Thickness {m}
  0.1024175,                              !- Conductivity {W/m-K}
  544.68,                                 !- Density {kg/m3}
  1172.36,                                !- Specific Heat {J/kg-K}
  0.9,                                    !- Thermal Absorptance
  0.7,                                    !- Solar Absorptance
  0.7;                                    !- Visible Absorptance

OS:Material,
  {7b9dbf56-7af3-41ca-8440-d42cd74528c0}, !- Handle
  osb sheathing 0.5 in.,                  !- Name
  Rough,                                  !- Roughness
  0.0127,                                 !- Thickness {m}
  0.1154577,                              !- Conductivity {W/m-K}
  512.64,                                 !- Density {kg/m3}
  1214.23,                                !- Specific Heat {J/kg-K}
  0.9,                                    !- Thermal Absorptance
  0.7,                                    !- Solar Absorptance
  0.7;                                    !- Visible Absorptance

OS:Material,
  {a0a03c42-aec3-418c-8300-a0e01064b83c}, !- Handle
  wall stud and cavity,                   !- Name
  Rough,                                  !- Roughness
  0.1397,                                 !- Thickness {m}
  0.0929021674204099,                     !- Conductivity {W/m-K}
  139.0536,                               !- Density {kg/m3}
  1170.23755760369,                       !- Specific Heat {J/kg-K}
  0.9,                                    !- Thermal Absorptance
  0.7,                                    !- Solar Absorptance
  0.7;                                    !- Visible Absorptance

OS:Material,
  {80f05102-a98a-4346-8baf-ddfca7e8214f}, !- Handle
  gypsum board,                           !- Name
  Rough,                                  !- Roughness
  0.0127,                                 !- Thickness {m}
  0.1602906,                              !- Conductivity {W/m-K}
  801,                                    !- Density {kg/m3}
  837.4,                                  !- Specific Heat {J/kg-K}
  0.9,                                    !- Thermal Absorptance
  0.6,                                    !- Solar Absorptance
  0.6;                                    !- Visible Absorptance

OS:Construction,
  {746d089c-0900-4d3d-8850-03bafe06a1c8}, !- Handle
  Wall1 construction,                     !- Name
  ,                                       !- Surface Rendering Name
  {f0864064-cc12-43cb-a749-7d28c31d75f2}, !- Layer 1
  {7b9dbf56-7af3-41ca-8440-d42cd74528c0}, !- Layer 2
  {a0a03c42-aec3-418c-8300-a0e01064b83c}, !- Layer 3
  {80f05102-a98a-4346-8baf-ddfca7e8214f}; !- Layer 4

OS:Surface,
  {390115e2-2d4c-477f-80cf-b39795ddbb87}, !- Handle
  Wall2,                                  !- Name
  Wall,                                   !- Surface Type
  {73a97600-d124-4de5-9baa-f39dd7a6b636}, !- Construction Name
  {c28ddd69-3700-458e-8379-94ae094015b0}, !- Space Name
  Outdoors,                               !- Outside Boundary Condition
  ,                                       !- Outside Boundary Condition Object
  SunExposed,                             !- Sun Exposure
  WindExposed,                            !- Wind Exposure
  ,                                       !- View Factor to Ground
  ,                                       !- Number of Vertices
  6.96193691424288, -1.00690691424288, 0, !- X,Y,Z Vertex 1 {m}
  6.96193691424288, -1.00690691424288, 2.4384, !- X,Y,Z Vertex 2 {m}
  6.96193691424288, -6.96193691424288, 2.4384, !- X,Y,Z Vertex 3 {m}
  6.96193691424288, -6.96193691424288, 0; !- X,Y,Z Vertex 4 {m}

OS:AdditionalProperties,
  {be3ac4e2-4190-42b1-a2b9-6fd44280b2e8}, !- Handle
  {390115e2-2d4c-477f-80cf-b39795ddbb87}, !- Object Name
  Length,                                 !- Feature Name 1
  Double,                                 !- Feature Data Type 1
  19.537500000000001,                     !- Feature Value 1
  Azimuth,                                !- Feature Name 2
  Integer,                                !- Feature Data Type 2
  90,                                     !- Feature Value 2
  Tilt,                                   !- Feature Name 3
  Double,                                 !- Feature Data Type 3
  90,                                     !- Feature Value 3
  SurfaceType,                            !- Feature Name 4
  String,                                 !- Feature Data Type 4
  Wall;                                   !- Feature Value 4

OS:Construction,
  {73a97600-d124-4de5-9baa-f39dd7a6b636}, !- Handle
  Wall2 construction,                     !- Name
  ,                                       !- Surface Rendering Name
  {f0864064-cc12-43cb-a749-7d28c31d75f2}, !- Layer 1
  {7b9dbf56-7af3-41ca-8440-d42cd74528c0}, !- Layer 2
  {a0a03c42-aec3-418c-8300-a0e01064b83c}, !- Layer 3
  {80f05102-a98a-4346-8baf-ddfca7e8214f}; !- Layer 4

OS:Surface,
  {86501604-b806-4294-9baa-36ca3ad78986}, !- Handle
  Wall3,                                  !- Name
  Wall,                                   !- Surface Type
  {8060dd90-916d-41fb-bf80-4189e6d8d8c6}, !- Construction Name
  {c28ddd69-3700-458e-8379-94ae094015b0}, !- Space Name
  Outdoors,                               !- Outside Boundary Condition
  ,                                       !- Outside Boundary Condition Object
  SunExposed,                             !- Sun Exposure
  WindExposed,                            !- Wind Exposure
  ,                                       !- View Factor to Ground
  ,                                       !- Number of Vertices
  6.03290651424288, -6.96193691424288, 0, !- X,Y,Z Vertex 1 {m}
  6.03290651424288, -6.96193691424288, 2.4384, !- X,Y,Z Vertex 2 {m}
  -5.11896348575712, -6.96193691424288, 2.4384, !- X,Y,Z Vertex 3 {m}
  -5.11896348575712, -6.96193691424288, 0; !- X,Y,Z Vertex 4 {m}

OS:AdditionalProperties,
  {0c2818e9-3887-483a-9bb8-ce3692e8aaae}, !- Handle
  {86501604-b806-4294-9baa-36ca3ad78986}, !- Object Name
  Length,                                 !- Feature Name 1
  Double,                                 !- Feature Data Type 1
  36.587499999999999,                     !- Feature Value 1
  Azimuth,                                !- Feature Name 2
  Integer,                                !- Feature Data Type 2
  180,                                    !- Feature Value 2
  Tilt,                                   !- Feature Name 3
  Double,                                 !- Feature Data Type 3
  90,                                     !- Feature Value 3
  SurfaceType,                            !- Feature Name 4
  String,                                 !- Feature Data Type 4
  Wall;                                   !- Feature Value 4

OS:Construction,
  {8060dd90-916d-41fb-bf80-4189e6d8d8c6}, !- Handle
  Wall3 construction,                     !- Name
  ,                                       !- Surface Rendering Name
  {f0864064-cc12-43cb-a749-7d28c31d75f2}, !- Layer 1
  {7b9dbf56-7af3-41ca-8440-d42cd74528c0}, !- Layer 2
  {a0a03c42-aec3-418c-8300-a0e01064b83c}, !- Layer 3
  {80f05102-a98a-4346-8baf-ddfca7e8214f}; !- Layer 4

OS:Surface,
  {9c7527c3-cf83-47b3-949f-6c7942b7ed4a}, !- Handle
  Wall4,                                  !- Name
  Wall,                                   !- Surface Type
  {c770aa5e-dcab-4de5-ae3b-b4f1b2cfdbb9}, !- Construction Name
  {c28ddd69-3700-458e-8379-94ae094015b0}, !- Space Name
  Outdoors,                               !- Outside Boundary Condition
  ,                                       !- Outside Boundary Condition Object
  SunExposed,                             !- Sun Exposure
  WindExposed,                            !- Wind Exposure
  ,                                       !- View Factor to Ground
  ,                                       !- Number of Vertices
  -6.96193691424288, 1.00690691424288, 0, !- X,Y,Z Vertex 1 {m}
  -6.96193691424288, 1.00690691424288, 2.4384, !- X,Y,Z Vertex 2 {m}
  -6.96193691424288, 6.96193691424288, 2.4384, !- X,Y,Z Vertex 3 {m}
  -6.96193691424288, 6.96193691424288, 0; !- X,Y,Z Vertex 4 {m}

OS:AdditionalProperties,
  {7a98fd52-322e-4c1c-b79b-07d13a89af73}, !- Handle
  {9c7527c3-cf83-47b3-949f-6c7942b7ed4a}, !- Object Name