
OS:Version,
  {e8b50325-9d0e-4547-84bf-7fe963ebef78}, !- Handle
  3.9.0;                                  !- Version Identifier

OS:SimulationControl,
  {e0850f46-7a3e-4062-a535-eb9f88654094}, !- Handle
  ,                                       !- Do Zone Sizing Calculation
  ,                                       !- Do System Sizing Calculation
  ,                                       !- Do Plant Sizing Calculation
  No;                                     !- Run Simulation for Sizing Periods

OS:Timestep,
  {eadfc296-124b-47da-95f1-3e3864ead24e}, !- Handle
  1;                                      !- Number of Timesteps per Hour

OS:ShadowCalculation,
  {e186db53-36e9-45f5-9acd-3f84c0668964}, !- Handle
  PolygonClipping,                        !- Shading Calculation Method
  ,                                       !- Shading Calculation Update Frequency Method
  20,                                     !- Shading Calculation Update Frequency
  200,                                    !- Maximum Figures in Shadow Overlap Calculations
  ,                                       !- Polygon Clipping Algorithm
  512,                                    !- Pixel Counting Resolution
  ,                                       !- Sky Diffuse Modeling Algorithm
  No,                                     !- Output External Shading Calculation Results
  No,                                     !- Disable Self-Shading Within Shading Zone Groups
  No;                                     !- Disable Self-Shading From Shading Zone Groups to Other Zones

OS:SurfaceConvectionAlgorithm:Outside,
  {520968ef-9b2a-4c1a-b9fe-70c7818ac5a2}, !- Handle
  DOE-2;                                  !- Algorithm

OS:SurfaceConvectionAlgorithm:Inside,
  {2f1d7117-a5b2-4b14-a132-7656140235ca}, !- Handle
  TARP;                                   !- Algorithm

OS:ZoneCapacitanceMultiplier:ResearchSpecial,
  {7d47d0bd-1d61-4efd-9e67-914cb806bd70}, !- Handle
  7,                                      !- Temperature Capacity Multiplier
  15,                                     !- Humidity Capacity Multiplier
  ;                                       !- Carbon Dioxide Capacity Multiplier

OS:ConvergenceLimits,
  {e9476728-9f45-4892-88c4-e1b69e8a6590}, !- Handle
  0;                                      !- Minimum System Timestep {minutes}

OS:RunPeriod,
  {4f8e54e9-60a1-4fa1-ad7d-3a23dd72c6ed}, !- Handle
  Run Period 1,                           !- Name
  1,                                      !- Begin Month
  1,                                      !- Begin Day of Month
  12,                                     !- End Month
  31,                                     !- End Day of Month
  ,                                       !- Use Weather File Holidays and Special Days
  ,                                       !- Use Weather File Daylight Saving Period
  ,                                       !- Apply Weekend Holiday Rule
  ,                                       !- Use Weather File Rain Indicators
  ,                                       !- Use Weather File Snow Indicators
  ;                                       !- Number of Times Runperiod to be Repeated

OS:PerformancePrecisionTradeoffs,
  {7891413c-5a1f-452e-9937-d9b9a62a679b}, !- Handle
  ,                                       !- Use Coil Direct Solutions
  CarrollMRT;                             !- Zone Radiant Exchange Algorithm

OS:WeatherFile,
  {23469a0c-7b6c-49cb-8e6d-14e768108f3b}, !- Handle
  Buffalo Niagara Intl Ap,                !- City
  NY,                                     !- State Province Region
  USA,                                    !- Country
  TMY3,                                   !- Data Source
  725280,                                 !- WMO Number
  42.93,                                  !- Latitude {deg}
  -78.73,                                 !- Longitude {deg}
  -5,                                     !- Time Zone {hr}
  215,                                    !- Elevation {m}
  /Users/nmoore/github/urbanopt-example-geojson-project/example_project/weather/USA_NY_Buffalo-Greater.Buffalo.Intl.AP.725280_TMY3.epw, !- Url
  6B50E0FF,                               !- Checksum
  ,                                       !- Start Date Actual Year
  Sunday;                                 !- Start Day of Week

OS:YearDescription,
  {80e2cce6-a6d9-452a-8afe-2f8eb6ffbb13}, !- Handle
  2007,                                   !- Calendar Year
  ,                                       !- Day of Week for Start Day
  ;                                       !- Is Leap Year

OS:Site,
  {57cae5f6-f518-4b66-8575-0e85698f5e96}, !- Handle
  Buffalo Niagara Intl Ap_NY,             !- Name
  42.93,                                  !- Latitude {deg}
  -78.73,                                 !- Longitude {deg}
  -5,                                     !- Time Zone {hr}
  215,                                    !- Elevation {m}
  Suburbs,                                !- Terrain
  Yes;                                    !- Keep Site Location Information

OS:RunPeriodControl:DaylightSavingTime,
  {28b3ed73-a9ca-4866-b530-ba4b91d182ed}, !- Handle
  Mar 12,                                 !- Start Date
  Nov 5;                                  !- End Date

OS:Site:GroundTemperature:Shallow,
  {9794cf68-485a-468c-acb0-3a8fc0f65421}, !- Handle
  4.30207395723828,                       !- January Surface Ground Temperature {C}
  2.29327249652502,                       !- February Surface Ground Temperature {C}
  2.13240047156047,                       !- March Surface Ground Temperature {C}
  3.08567940719286,                       !- April Surface Ground Temperature {C}
  6.91256312497526,                       !- May Surface Ground Temperature {C}
  10.7216195949507,                       !- June Surface Ground Temperature {C}
  14.0238679822574,                       !- July Surface Ground Temperature {C}
  16.1157611184724,                       !- August Surface Ground Temperature {C}
  16.2934789303462,                       !- September Surface Ground Temperature {C}
  14.5920754632847,                       !- October Surface Ground Temperature {C}
  11.374036348653,                        !- November Surface Ground Temperature {C}
  7.68182621661674;                       !- December Surface Ground Temperature {C}

OS:ThermalZone,
  {2feedc72-a98b-4190-8b8a-4799aae16b67}, !- Handle
  conditioned space,                      !- Name
  1,                                      !- Multiplier
  ,                                       !- Ceiling Height {m}
  346.03186535424,                        !- Volume {m3}
  ,                                       !- Floor Area {m2}
  ,                                       !- Zone Inside Convection Algorithm
  ,                                       !- Zone Outside Convection Algorithm
  ,                                       !- Zone Conditioning Equipment List Name
  {a4dc8dd6-7bd3-4bf9-93da-01ba64d1e4cb}, !- Zone Air Inlet Port List
  {1c3eaa25-28b0-406c-952e-bd027cdbdfde}, !- Zone Air Exhaust Port List
  {461490cd-9087-47de-8576-bab4d7a42b56}, !- Zone Air Node Name
  {13b95ada-95ed-4919-b9cc-cc05b32fa658}, !- Zone Return Air Port List
  ,                                       !- Primary Daylighting Control Name
  ,                                       !- Fraction of Zone Controlled by Primary Daylighting Control
  ,                                       !- Secondary Daylighting Control Name
  ,                                       !- Fraction of Zone Controlled by Secondary Daylighting Control
  ,                                       !- Illuminance Map Name
  ,                                       !- Group Rendering Name
  {a57c6845-c02c-41bc-9f1d-88f4e66f4a33}, !- Thermostat Name
  No;                                     !- Use Ideal Air Loads

OS:Node,
  {44b44378-ac99-4655-8dc6-c5ae653998a6}, !- Handle
  Node 1,                                 !- Name
  {461490cd-9087-47de-8576-bab4d7a42b56}, !- Inlet Port
  ;                                       !- Outlet Port

OS:Connection,
  {461490cd-9087-47de-8576-bab4d7a42b56}, !- Handle
  {2feedc72-a98b-4190-8b8a-4799aae16b67}, !- Source Object
  11,                                     !- Outlet Port
  {44b44378-ac99-4655-8dc6-c5ae653998a6}, !- Target Object
  2;                                      !- Inlet Port

OS:PortList,
  {a4dc8dd6-7bd3-4bf9-93da-01ba64d1e4cb}, !- Handle
  {2feedc72-a98b-4190-8b8a-4799aae16b67}, !- HVAC Component
  {0189abf1-c1dd-4514-925d-7c6f69bc0f5f}; !- Port 1

OS:PortList,
  {1c3eaa25-28b0-406c-952e-bd027cdbdfde}, !- Handle
  {2feedc72-a98b-4190-8b8a-4799aae16b67}; !- HVAC Component

OS:PortList,
  {13b95ada-95ed-4919-b9cc-cc05b32fa658}, !- Handle
  {2feedc72-a98b-4190-8b8a-4799aae16b67}, !- HVAC Component
  {b3bed37c-7679-4bb3-b12b-702800dd30a8}; !- Port 1

OS:Sizing:Zone,
  {d217a0df-060a-4bcb-a6f1-3c767b81a439}, !- Handle
  {2feedc72-a98b-4190-8b8a-4799aae16b67}, !- Zone or ZoneList Name
  SupplyAirTemperature,                   !- Zone Cooling Design Supply Air Temperature Input Method
  14,                                     !- Zone Cooling Design Supply Air Temperature {C}
  11.11,                                  !- Zone Cooling Design Supply Air Temperature Difference {deltaC}
  SupplyAirTemperature,                   !- Zone Heating Design Supply Air Temperature Input Method
  40,                                     !- Zone Heating Design Supply Air Temperature {C}
  11.11,                                  !- Zone Heating Design Supply Air Temperature Difference {deltaC}
  0.0085,                                 !- Zone Cooling Design Supply Air Humidity Ratio {kg-H2O/kg-air}
  0.008,                                  !- Zone Heating Design Supply Air Humidity Ratio {kg-H2O/kg-air}
  ,                                       !- Zone Heating Sizing Factor
  ,                                       !- Zone Cooling Sizing Factor
  DesignDay,                              !- Cooling Design Air Flow Method
  ,                                       !- Cooling Design Air Flow Rate {m3/s}
  ,                                       !- Cooling Minimum Air Flow per Zone Floor Area {m3/s-m2}
  ,                                       !- Cooling Minimum Air Flow {m3/s}
  ,                                       !- Cooling Minimum Air Flow Fraction
  DesignDay,                              !- Heating Design Air Flow Method
  ,                                       !- Heating Design Air Flow Rate {m3/s}
  ,                                       !- Heating Maximum Air Flow per Zone Floor Area {m3/s-m2}
  ,                                       !- Heating Maximum Air Flow {m3/s}
  ,                                       !- Heating Maximum Air Flow Fraction
  No,                                     !- Account for Dedicated Outdoor Air System
  NeutralSupplyAir,                       !- Dedicated Outdoor Air System Control Strategy
  autosize,                               !- Dedicated Outdoor Air Low Setpoint Temperature for Design {C}
  autosize,                               !- Dedicated Outdoor Air High Setpoint Temperature for Design {C}
  Sensible Load Only No Latent Load,      !- Zone Load Sizing Method
  HumidityRatioDifference,                !- Zone Latent Cooling Design Supply Air Humidity Ratio Input Method
  ,                                       !- Zone Dehumidification Design Supply Air Humidity Ratio {kgWater/kgDryAir}
  0.005,                                  !- Zone Cooling Design Supply Air Humidity Ratio Difference {kgWater/kgDryAir}
  HumidityRatioDifference,                !- Zone Latent Heating Design Supply Air Humidity Ratio Input Method
  ,                                       !- Zone Humidification Design Supply Air Humidity Ratio {kgWater/kgDryAir}
  0.005,                                  !- Zone Humidification Design Supply Air Humidity Ratio Difference {kgWater/kgDryAir}
  ,                                       !- Zone Humidistat Dehumidification Set Point Schedule Name
  ,                                       !- Zone Humidistat Humidification Set Point Schedule Name
  ,                                       !- Design Zone Air Distribution Effectiveness in Cooling Mode
  ,                                       !- Design Zone Air Distribution Effectiveness in Heating Mode
  ,                                       !- Design Zone Secondary Recirculation Fraction {dimensionless}
  ,                                       !- Design Minimum Zone Ventilation Efficiency {dimensionless}
  Coincident;                             !- Sizing Option

OS:ZoneHVAC:EquipmentList,
  {f5a604e0-be5a-4f66-9f9d-1436567601b1}, !- Handle
  Zone HVAC Equipment List 1,             !- Name
  {2feedc72-a98b-4190-8b8a-4799aae16b67}, !- Thermal Zone
  ,                                       !- Load Distribution Scheme
  {b734c487-34c9-42fd-90a0-4dfc7a5f2048}, !- Zone Equipment 1
  1,                                      !- Zone Equipment Cooling Sequence 1
  1,                                      !- Zone Equipment Heating or No-Load Sequence 1
  {2eea5b60-8e60-4604-ba19-13397ea1c141}, !- Zone Equipment Sequential Cooling Fraction Schedule Name 1
  {bf2d0f0f-5028-4692-85e5-b11ece5a47d7}; !- Zone Equipment Sequential Heating Fraction Schedule Name 1

OS:AdditionalProperties,
  {0343bf8d-38ec-4b3b-9863-eb2df4ac5cbe}, !- Handle
  {2feedc72-a98b-4190-8b8a-4799aae16b67}, !- Object Name
  ObjectType,                             !- Feature Name 1
  String,                                 !- Feature Data Type 1
  conditioned space;                      !- Feature Value 1

OS:Space,
  {6ecb14cc-2969-485b-9b84-727a2914a6fe}, !- Handle
  conditioned space 1,                    !- Name
  ,                                       !- Space Type Name
  ,                                       !- Default Construction Set Name
  ,                                       !- Default Schedule Set Name
  ,                                       !- Direction of Relative North {deg}
  ,                                       !- X Origin {m}
  ,                                       !- Y Origin {m}
  ,                                       !- Z Origin {m}
  ,                                       !- Building Story Name
  {2feedc72-a98b-4190-8b8a-4799aae16b67}, !- Thermal Zone Name
  ,                                       !- Part of Total Floor Area
  ,                                       !- Design Specification Outdoor Air Object Name
  ,                                       !- Building Unit Name
  346.03186535424;                        !- Volume {m3}

OS:Schedule:Ruleset,
  {b3f4710f-ce18-4006-b3cb-a0884b1ed5d2}, !- Handle
  heating setpoint,                       !- Name
  {213458b4-a7f0-4ad5-98af-fb7810e53e44}, !- Schedule Type Limits Name
  {a6dc672f-0af1-4dd9-89d9-5f2f644bded5}; !- Default Day Schedule Name

OS:Schedule:Day,
  {a6dc672f-0af1-4dd9-89d9-5f2f644bded5}, !- Handle
  heating setpoint default day,           !- Name
  {213458b4-a7f0-4ad5-98af-fb7810e53e44}, !- Schedule Type Limits Name
  ,                                       !- Interpolate to Timestep
  24,                                     !- Hour 1
  0,                                      !- Minute 1
  0;                                      !- Value Until Time 1

OS:Schedule:Rule,
  {7c5e465c-7fb8-4561-98ce-41a50be8791a}, !- Handle
  heating setpoint allday rule,           !- Name
  {b3f4710f-ce18-4006-b3cb-a0884b1ed5d2}, !- Schedule Ruleset Name
  0,                                      !- Rule Order
  {d3c617ad-bcbc-4ece-b530-bf0093c8de45}, !- Day Schedule Name
  Yes,                                    !- Apply Sunday
  Yes,                                    !- Apply Monday
  Yes,                                    !- Apply Tuesday
  Yes,                                    !- Apply Wednesday
  Yes,                                    !- Apply Thursday
  Yes,                                    !- Apply Friday
  Yes,                                    !- Apply Saturday
  DateRange,                              !- Date Specification Type
  1,                                      !- Start Month
  1,                                      !- Start Day
  12,                                     !- End Month
  31;                                     !- End Day

OS:Schedule:Day,
  {d3c617ad-bcbc-4ece-b530-bf0093c8de45}, !- Handle
  heating setpoint day,                   !- Name
  {213458b4-a7f0-4ad5-98af-fb7810e53e44}, !- Schedule Type Limits Name
  ,                                       !- Interpolate to Timestep
  24,                                     !- Hour 1
  0,                                      !- Minute 1
  20;                                     !- Value Until Time 1

OS:Schedule:Ruleset,
  {b5e3ed7e-e7f2-4970-ae80-cedc8ad69b58}, !- Handle
  cooling setpoint,                       !- Name
  {213458b4-a7f0-4ad5-98af-fb7810e53e44}, !- Schedule Type Limits Name
  {23093fb6-435a-45d9-8935-39bfde173e9d}; !- Default Day Schedule Name

OS:Schedule:Day,
  {23093fb6-435a-45d9-8935-39bfde173e9d}, !- Handle
  cooling setpoint default day,           !- Name
  {213458b4-a7f0-4ad5-98af-fb7810e53e44}, !- Schedule Type Limits Name
  ,                                       !- Interpolate to Timestep
  24,                                     !- Hour 1
  0,                                      !- Minute 1
  0;                                      !- Value Until Time 1

OS:Schedule:Rule,
  {47b148c5-8aaa-4b72-8ff3-6e55f0ba1993}, !- Handle
  cooling setpoint allday rule,           !- Name
  {b5e3ed7e-e7f2-4970-ae80-cedc8ad69b58}, !- Schedule Ruleset Name
  0,                                      !- Rule Order
  {f9fd19d3-34e0-4c74-80ea-0cb2053f2bf7}, !- Day Schedule Name
  Yes,                                    !- Apply Sunday
  Yes,                                    !- Apply Monday
  Yes,                                    !- Apply Tuesday
  Yes,                                    !- Apply Wednesday
  Yes,                                    !- Apply Thursday
  Yes,                                    !- Apply Friday
  Yes,                                    !- Apply Saturday
  DateRange,                              !- Date Specification Type
  1,                                      !- Start Month
  1,                                      !- Start Day
  12,                                     !- End Month
  31;                                     !- End Day

OS:Schedule:Day,
  {f9fd19d3-34e0-4c74-80ea-0cb2053f2bf7}, !- Handle
  cooling setpoint day,                   !- Name
  {213458b4-a7f0-4ad5-98af-fb7810e53e44}, !- Schedule Type Limits Name
  ,                                       !- Interpolate to Timestep
  24,                                     !- Hour 1
  0,                                      !- Minute 1
  25.5555555555556;                       !- Value Until Time 1

OS:ThermostatSetpoint:DualSetpoint,
  {a57c6845-c02c-41bc-9f1d-88f4e66f4a33}, !- Handle
  conditioned space temperature setpoint, !- Name
  {b3f4710f-ce18-4006-b3cb-a0884b1ed5d2}, !- Heating Setpoint Temperature Schedule Name
  {b5e3ed7e-e7f2-4970-ae80-cedc8ad69b58}, !- Cooling Setpoint Temperature Schedule Name
  0;                                      !- Temperature Difference Between Cutout And Setpoint {deltaC}

OS:ScheduleTypeLimits,
  {213458b4-a7f0-4ad5-98af-fb7810e53e44}, !- Handle
  Temperature,                            !- Name
  ,                                       !- Lower Limit Value
  ,                                       !- Upper Limit Value
  Continuous,                             !- Numeric Type
  Temperature;                            !- Unit Type

OS:Surface,
  {94b6d81e-d8a0-4f90-a2d3-43d3aa4fcbf8}, !- Handle
  Roof1,                                  !- Name
  RoofCeiling,                            !- Surface Type
  {c3a0d56b-6ab5-4e57-b263-2e80ccae8e8f}, !- Construction Name
  {6ecb14cc-2969-485b-9b84-727a2914a6fe}, !- Space Name
  Outdoors,                               !- Outside Boundary Condition
  ,                                       !- Outside Boundary Condition Object
  SunExposed,                             !- Sun Exposure
  WindExposed,                            !- Wind Exposure
  ,                                       !- View Factor to Ground
  ,                                       !- Number of Vertices
  -4.86320793386423, 4.86320793386423, 2.4384, !- X,Y,Z Vertex 1 {m}
  -4.86320793386423, -4.86320793386423, 2.4384, !- X,Y,Z Vertex 2 {m}
  4.86320793386423, -4.86320793386423, 2.4384, !- X,Y,Z Vertex 3 {m}
  4.86320793386423, 4.86320793386423, 2.4384; !- X,Y,Z Vertex 4 {m}

OS:AdditionalProperties,
  {a84ff8b1-b0fb-44a2-8d6d-ba72c983bbe2}, !- Handle
  {94b6d81e-d8a0-4f90-a2d3-43d3aa4fcbf8}, !- Object Name
  Length,                                 !- Feature Name 1
  Double,                                 !- Feature Data Type 1
  31.910813214332222,                     !- Feature Value 1
  Width,                                  !- Feature Name 2
  Double,                                 !- Feature Data Type 2
  31.910813214332222,                     !- Feature Value 2
  Azimuth,                                !- Feature Name 3
  Integer,                                !- Feature Data Type 3
  0,                                      !- Feature Value 3
  Tilt,                                   !- Feature Name 4
  Double,                                 !- Feature Data Type 4
  0,                                      !- Feature Value 4
  SurfaceType,                            !- Feature Name 5
  String,                                 !- Feature Data Type 5
  Roof;                                   !- Feature Value 5

OS:Material,
  {e38f0484-1a37-469a-ab1f-611aada5b9de}, !- Handle
  asphalt or fiberglass shingles,         !- Name
  Rough,                                  !- Roughness
  0.00635,                                !- Thickness {m}
  0.162714,                               !- Conductivity {W/m-K}
  1121.4,                                 !- Density {kg/m3}
  1465.45,                                !- Specific Heat {J/kg-K}
  0.9,                                    !- Thermal Absorptance
  0.85,                                   !- Solar Absorptance
  0.85;                                   !- Visible Absorptance

OS:Material,
  {bd0a1baa-0f21-4867-99a9-9fe2d98fe2db}, !- Handle
  roof stud and cavity,                   !- Name
  Rough,                                  !- Roughness
  0.0889,                                 !- Thickness {m}
  0.491900632004487,                      !- Conductivity {W/m-K}
  50.32683,                               !- Density {kg/m3}
  1063.80987585548,                       !- Specific Heat {J/kg-K}
  0.9,                                    !- Thermal Absorptance
  0.7,                                    !- Solar Absorptance
  0.7;                                    !- Visible Absorptance

OS:Material,
  {954def9f-2121-4c1a-bc65-e67845f6fa96}, !- Handle
  gypsum board,                           !- Name
  Rough,                                  !- Roughness
  0.00254,                                !- Thickness {m}
  0.1602906,                              !- Conductivity {W/m-K}
  801,                                    !- Density {kg/m3}
  837.4,                                  !- Specific Heat {J/kg-K}
  0.9,                                    !- Thermal Absorptance
  0.6,                                    !- Solar Absorptance
  0.6;                                    !- Visible Absorptance

OS:Construction,
  {c3a0d56b-6ab5-4e57-b263-2e80ccae8e8f}, !- Handle
  Roof1 construction,                     !- Name
  ,                                       !- Surface Rendering Name
  {e38f0484-1a37-469a-ab1f-611aada5b9de}, !- Layer 1
  {bd0a1baa-0f21-4867-99a9-9fe2d98fe2db}, !- Layer 2
  {954def9f-2121-4c1a-bc65-e67845f6fa96}; !- Layer 3

OS:Surface,
  {c013135e-bbe0-4e78-83a2-5aa1103f60c3}, !- Handle
  Wall1,                                  !- Name
  Wall,                                   !- Surface Type
  {59a4a006-6757-42d0-814e-cc22f0ceee74}, !- Construction Name
  {6ecb14cc-2969-485b-9b84-727a2914a6fe}, !- Space Name
  Outdoors,                               !- Outside Boundary Condition
  ,                                       !- Outside Boundary Condition Object
  SunExposed,                             !- Sun Exposure
  WindExposed,                            !- Wind Exposure
  ,                                       !- View Factor to Ground
  ,                                       !- Number of Vertices
  -24.069675, 24.9987054, 0,              !- X,Y,Z Vertex 1 {m}
  -24.069675, 24.9987054, 4.8768,         !- X,Y,Z Vertex 2 {m}
  -17.192625, 24.9987054, 4.8768,         !- X,Y,Z Vertex 3 {m}
  -17.192625, 24.9987054, 0;              !- X,Y,Z Vertex 4 {m}

OS:AdditionalProperties,
  {52c5546b-a288-477b-98dd-96238803c68f}, !- Handle
  {c013135e-bbe0-4e78-83a2-5aa1103f60c3}, !- Object Name
  Length,                                 !- Feature Name 1
  Double,                                 !- Feature Data Type 1
  22.5625,                                !- Feature Value 1
  Azimuth,                                !- Feature Name 2
  Integer,                                !- Feature Data Type 2
  0,                                      !- Feature Value 2
  Tilt,                                   !- Feature Name 3
  Double,                                 !- Feature Data Type 3
  90,                                     !- Feature Value 3
  SurfaceType,                            !- Feature Name 4
  String,                                 !- Feature Data Type 4
  Wall;                                   !- Feature Value 4

OS:Material,
  {265246bc-14e2-4d4d-9026-a5890d54af1b}, !- Handle
  wood siding,                            !- Name
  Rough,                                  !- Roughness
  0.0254,                                 !- Thickness {m}
  0.1024175,                              !- Conductivity {W/m-K}
  544.68,                                 !- Density {kg/m3}
  1172.36,                                !- Specific Heat {J/kg-K}
  0.9,                                    !- Thermal Absorptance
  0.7,                                    !- Solar Absorptance
  0.7;                                    !- Visible Absorptance

OS:Material,
  {3dc5ad6c-4838-42e0-9fc0-38222ff4bca7}, !- Handle
  osb sheathing 0.5 in.,                  !- Name
  Rough,                                  !- Roughness
  0.0127,                                 !- Thickness {m}
  0.1154577,                              !- Conductivity {W/m-K}
  512.64,                                 !- Density {kg/m3}
  1214.23,                                !- Specific Heat {J/kg-K}
  0.9,                                    !- Thermal Absorptance
  0.7,                                    !- Solar Absorptance
  0.7;                                    !- Visible Absorptance

OS:Material,
  {5de12e2e-eb8f-4ffe-8715-988bb62e0f0d}, !- Handle
  wall stud and cavity,                   !- Name
  Rough,                                  !- Roughness
  0.1397,                                 !- Thickness {m}
  0.0929021674204099,                     !- Conductivity {W/m-K}
  139.0536,                               !- Density {kg/m3}
  1170.23755760369,                       !- Specific Heat {J/kg-K}
  0.9,                                    !- Thermal Absorptance
  0.7,                                    !- Solar Absorptance
  0.7;                                    !- Visible Absorptance

OS:Material,
  {630aea04-b6a7-4e74-b454-0b23f7a28cd8}, !- Handle
  gypsum board 1,                         !- Name
  Rough,                                  !- Roughness
  0.0127,                                 !- Thickness {m}
  0.1602906,                              !- Conductivity {W/m-K}
  801,                                    !- Density {kg/m3}
  837.4,                                  !- Specific Heat {J/kg-K}
  0.9,                                    !- Thermal Absorptance
  0.6,                                    !- Solar Absorptance
  0.6;                                    !- Visible Absorptance

OS:Construction,
  {59a4a006-6757-42d0-814e-cc22f0ceee74}, !- Handle
  Wall1 construction,                     !- Name
  ,                                       !- Surface Rendering Name
  {265246bc-14e2-4d4d-9026-a5890d54af1b}, !- Layer 1
  {3dc5ad6c-4838-42e0-9fc0-38222ff4bca7}, !- Layer 2
  {5de12e2e-eb8f-4ffe-8715-988bb62e0f0d}, !- Layer 3
  {630aea04-b6a7-4e74-b454-0b23f7a28cd8}; !- Layer 4

OS:Surface,
  {9affefd0-495c-4a7b-b8f2-3522376e3d37}, !- Handle
  Wall2,                                  !- Name
  Wall,                                   !- Surface Type
  {b3f5612d-8055-41c2-b877-f36e8cc219bc}, !- Construction Name
  {6ecb14cc-2969-485b-9b84-727a2914a6fe}, !- Space Name
  Outdoors,                               !- Outside Boundary Condition
  ,                                       !- Outside Boundary Condition Object
  SunExposed,                             !- Sun Exposure
  WindExposed,                            !- Wind Exposure
  ,                                       !- View Factor to Ground
  ,                                       !- Number of Vertices
  24.9987054, -21.5601804, 0,             !- X,Y,Z Vertex 1 {m}
  24.9987054, -21.5601804, 4.8768,        !- X,Y,Z Vertex 2 {m}
  24.9987054, -24.9987054, 4.8768,        !- X,Y,Z Vertex 3 {m}
  24.9987054, -24.9987054, 0;             !- X,Y,Z Vertex 4 {m}

OS:AdditionalProperties,
  {bfaab603-b7aa-4da0-869e-1be93a2d7d0d}, !- Handle
  {9affefd0-495c-4a7b-b8f2-3522376e3d37}, !- Object Name
  Length,                                 !- Feature Name 1
  Double,                                 !- Feature Data Type 1
  11.28125,                               !- Feature Value 1
  Azimuth,                                !- Feature Name 2