
OS:Version,
  {119971ad-6150-4d83-b0bc-e2b93479cba1}, !- Handle
  3.10.0;                                 !- Version Identifier

OS:SimulationControl,
  {6a3c552e-f5e2-429f-ab06-a1acf73c7a85}, !- Handle
  ,                                       !- Do Zone Sizing Calculation
  ,                                       !- Do System Sizing Calculation
  ,                                       !- Do Plant Sizing Calculation
  No;                                     !- Run Simulation for Sizing Periods

OS:Timestep,
  {b33da996-d2ff-4232-9bc3-fe20400323fb}, !- Handle
  1;                                      !- Number of Timesteps per Hour

OS:ShadowCalculation,
  {a9b87fe1-b916-464b-8990-149033929021}, !- Handle
  PolygonClipping,                        !- Shading Calculation Method
  ,                                       !- Shading Calculation Update Frequency Method
  20,                                     !- Shading Calculation Update Frequency
  200,                                    !- Maximum Figures in Shadow Overlap Calculations
  ,                                       !- Polygon Clipping Algorithm
  512,                                    !- Pixel Counting Resolution
  ,                                       !- Sky Diffuse Modeling Algorithm
  No,                                     !- Output External Shading Calculation Results
  No,                                     !- Disable Self-Shading Within Shading Zone Groups
  No;                                     !- Disable Self-Shading From Shading Zone Groups to Other Zones

OS:SurfaceConvectionAlgorithm:Outside,
  {a599dddf-ad20-4b9e-b2a2-5cee4e8c474d}, !- Handle
  DOE-2;                                  !- Algorithm

OS:SurfaceConvectionAlgorithm:Inside,
  {63c57e62-8a73-4bf6-a674-4ffda5fe2090}, !- Handle
  TARP;                                   !- Algorithm

OS:ZoneCapacitanceMultiplier:ResearchSpecial,
  {3c98ba1f-4e53-4c4f-9871-a3962d90544b}, !- Handle
  7,                                      !- Temperature Capacity Multiplier
  15,                                     !- Humidity Capacity Multiplier
  ;                                       !- Carbon Dioxide Capacity Multiplier

OS:ConvergenceLimits,
  {9be96695-c7d4-486f-81ff-ed7e1b66c75d}, !- Handle
  0;                                      !- Minimum System Timestep {minutes}

OS:RunPeriod,
  {05a30bca-a8d3-425b-8789-750ffa89f5bb}, !- Handle
  Run Period 1,                           !- Name
  1,                                      !- Begin Month
  1,                                      !- Begin Day of Month
  12,                                     !- End Month
  31,                                     !- End Day of Month
  ,                                       !- Use Weather File Holidays and Special Days
  ,                                       !- Use Weather File Daylight Saving Period
  ,                                       !- Apply Weekend Holiday Rule
  ,                                       !- Use Weather File Rain Indicators
  ,                                       !- Use Weather File Snow Indicators
  ;                                       !- Number of Times Runperiod to be Repeated

OS:PerformancePrecisionTradeoffs,
  {961a3709-4721-4c76-be88-1ca6ef645e3a}, !- Handle
  ,                                       !- Use Coil Direct Solutions
  CarrollMRT;                             !- Zone Radiant Exchange Algorithm

OS:WeatherFile,
  {18b82d1d-502f-4be0-b3ba-4dd16e57345a}, !- Handle
  Buffalo Niagara Intl Ap,                !- City
  NY,                                     !- State Province Region
  USA,                                    !- Country
  TMY3,                                   !- Data Source
  725280,                                 !- WMO Number
  42.93,                                  !- Latitude {deg}
  -78.73,                                 !- Longitude {deg}
  -5,                                     !- Time Zone {hr}
  215,                                    !- Elevation {m}
  /Users/nmoore/github/urbanopt-example-geojson-project/example_project/weather/USA_NY_Buffalo-Greater.Buffalo.Intl.AP.725280_TMY3.epw, !- Url
  6B50E0FF,                               !- Checksum
  ,                                       !- Start Date Actual Year
  Sunday;                                 !- Start Day of Week

OS:YearDescription,
  {842311cb-5a28-4111-a616-bd24e90aa7db}, !- Handle
  2007,                                   !- Calendar Year
  ,                                       !- Day of Week for Start Day
  ;                                       !- Is Leap Year

OS:Site,
  {f0010e25-7a62-483d-b952-43482fbc9757}, !- Handle
  Buffalo Niagara Intl Ap_NY,             !- Name
  42.93,                                  !- Latitude {deg}
  -78.73,                                 !- Longitude {deg}
  -5,                                     !- Time Zone {hr}
  215,                                    !- Elevation {m}
  Suburbs,                                !- Terrain
  Yes;                                    !- Keep Site Location Information

OS:RunPeriodControl:DaylightSavingTime,
  {342fb8c7-cfd4-499d-a19e-41fead5a2920}, !- Handle
  Mar 12,                                 !- Start Date
  Nov 5;                                  !- End Date

OS:Site:GroundTemperature:Shallow,
  {faede8ff-2335-4b99-a682-ac54408fb510}, !- Handle
  4.30207395723828,                       !- January Surface Ground Temperature {C}
  2.29327249652502,                       !- February Surface Ground Temperature {C}
  2.13240047156047,                       !- March Surface Ground Temperature {C}
  3.08567940719286,                       !- April Surface Ground Temperature {C}
  6.91256312497526,                       !- May Surface Ground Temperature {C}
  10.7216195949507,                       !- June Surface Ground Temperature {C}
  14.0238679822574,                       !- July Surface Ground Temperature {C}
  16.1157611184724,                       !- August Surface Ground Temperature {C}
  16.2934789303462,                       !- September Surface Ground Temperature {C}
  14.5920754632847,                       !- October Surface Ground Temperature {C}
  11.374036348653,                        !- November Surface Ground Temperature {C}
  7.68182621661674;                       !- December Surface Ground Temperature {C}

OS:ThermalZone,
  {bc59c48f-031b-42fc-abfa-dd34ca579341}, !- Handle
  conditioned space,                      !- Name
  1,                                      !- Multiplier
  ,                                       !- Ceiling Height {m}
  346.03186535424,                        !- Volume {m3}
  ,                                       !- Floor Area {m2}
  ,                                       !- Zone Inside Convection Algorithm
  ,                                       !- Zone Outside Convection Algorithm
  ,                                       !- Zone Conditioning Equipment List Name
  {7b58f07c-d6b6-45b1-8fdd-1143ca72b5f6}, !- Zone Air Inlet Port List
  {7c9bb9e2-d91f-4d53-b739-3399917133d6}, !- Zone Air Exhaust Port List
  {4fbf15a2-f563-48a0-98cb-e2d948c51991}, !- Zone Air Node Name
  {fae8dfcb-8e04-4646-a87a-8f0d08017c60}, !- Zone Return Air Port List
  ,                                       !- Primary Daylighting Control Name
  ,                                       !- Fraction of Zone Controlled by Primary Daylighting Control
  ,                                       !- Secondary Daylighting Control Name
  ,                                       !- Fraction of Zone Controlled by Secondary Daylighting Control
  ,                                       !- Illuminance Map Name
  ,                                       !- Group Rendering Name
  {06e8d58d-3eea-4d11-a983-dda4be3c1670}, !- Thermostat Name
  No;                                     !- Use Ideal Air Loads

OS:Node,
  {6faa53c0-979d-47de-b171-bc40e4b588ef}, !- Handle
  Node 1,                                 !- Name
  {4fbf15a2-f563-48a0-98cb-e2d948c51991}, !- Inlet Port
  ;                                       !- Outlet Port

OS:Connection,
  {4fbf15a2-f563-48a0-98cb-e2d948c51991}, !- Handle
  {bc59c48f-031b-42fc-abfa-dd34ca579341}, !- Source Object
  11,                                     !- Outlet Port
  {6faa53c0-979d-47de-b171-bc40e4b588ef}, !- Target Object
  2;                                      !- Inlet Port

OS:PortList,
  {7b58f07c-d6b6-45b1-8fdd-1143ca72b5f6}, !- Handle
  {bc59c48f-031b-42fc-abfa-dd34ca579341}, !- HVAC Component
  {4cf1a95c-3a58-41a7-b10d-7061cdf0b7b3}; !- Port 1

OS:PortList,
  {7c9bb9e2-d91f-4d53-b739-3399917133d6}, !- Handle
  {bc59c48f-031b-42fc-abfa-dd34ca579341}; !- HVAC Component

OS:PortList,
  {fae8dfcb-8e04-4646-a87a-8f0d08017c60}, !- Handle
  {bc59c48f-031b-42fc-abfa-dd34ca579341}, !- HVAC Component
  {19138c01-cc05-4d22-bc0f-0baafb0cf4f4}; !- Port 1

OS:Sizing:Zone,
  {46b89bf3-fe83-4bf1-a7fc-8da1adb66e16}, !- Handle
  {bc59c48f-031b-42fc-abfa-dd34ca579341}, !- Zone or ZoneList Name
  SupplyAirTemperature,                   !- Zone Cooling Design Supply Air Temperature Input Method
  14,                                     !- Zone Cooling Design Supply Air Temperature {C}
  11.11,                                  !- Zone Cooling Design Supply Air Temperature Difference {deltaC}
  SupplyAirTemperature,                   !- Zone Heating Design Supply Air Temperature Input Method
  40,                                     !- Zone Heating Design Supply Air Temperature {C}
  11.11,                                  !- Zone Heating Design Supply Air Temperature Difference {deltaC}
  0.0085,                                 !- Zone Cooling Design Supply Air Humidity Ratio {kg-H2O/kg-air}
  0.008,                                  !- Zone Heating Design Supply Air Humidity Ratio {kg-H2O/kg-air}
  ,                                       !- Zone Heating Sizing Factor
  ,                                       !- Zone Cooling Sizing Factor
  DesignDay,                              !- Cooling Design Air Flow Method
  ,                                       !- Cooling Design Air Flow Rate {m3/s}
  ,                                       !- Cooling Minimum Air Flow per Zone Floor Area {m3/s-m2}
  ,                                       !- Cooling Minimum Air Flow {m3/s}
  ,                                       !- Cooling Minimum Air Flow Fraction
  DesignDay,                              !- Heating Design Air Flow Method
  ,                                       !- Heating Design Air Flow Rate {m3/s}
  ,                                       !- Heating Maximum Air Flow per Zone Floor Area {m3/s-m2}
  ,                                       !- Heating Maximum Air Flow {m3/s}
  ,                                       !- Heating Maximum Air Flow Fraction
  No,                                     !- Account for Dedicated Outdoor Air System
  NeutralSupplyAir,                       !- Dedicated Outdoor Air System Control Strategy
  autosize,                               !- Dedicated Outdoor Air Low Setpoint Temperature for Design {C}
  autosize,                               !- Dedicated Outdoor Air High Setpoint Temperature for Design {C}
  Sensible Load Only No Latent Load,      !- Zone Load Sizing Method
  HumidityRatioDifference,                !- Zone Latent Cooling Design Supply Air Humidity Ratio Input Method
  ,                                       !- Zone Dehumidification Design Supply Air Humidity Ratio {kgWater/kgDryAir}
  0.005,                                  !- Zone Cooling Design Supply Air Humidity Ratio Difference {kgWater/kgDryAir}
  HumidityRatioDifference,                !- Zone Latent Heating Design Supply Air Humidity Ratio Input Method
  ,                                       !- Zone Humidification Design Supply Air Humidity Ratio {kgWater/kgDryAir}
  0.005,                                  !- Zone Humidification Design Supply Air Humidity Ratio Difference {kgWater/kgDryAir}
  ,                                       !- Zone Humidistat Dehumidification Set Point Schedule Name
  ,                                       !- Zone Humidistat Humidification Set Point Schedule Name
  ,                                       !- Design Zone Air Distribution Effectiveness in Cooling Mode
  ,                                       !- Design Zone Air Distribution Effectiveness in Heating Mode
  ,                                       !- Design Zone Secondary Recirculation Fraction {dimensionless}
  ,                                       !- Design Minimum Zone Ventilation Efficiency {dimensionless}
  Coincident;                             !- Sizing Option

OS:ZoneHVAC:EquipmentList,
  {99eb41d9-c6ab-4fac-b7cb-dd18817c771e}, !- Handle
  Zone HVAC Equipment List 1,             !- Name
  {bc59c48f-031b-42fc-abfa-dd34ca579341}, !- Thermal Zone
  ,                                       !- Load Distribution Scheme
  {b433beae-29c3-4534-b662-b98c3c772676}, !- Zone Equipment 1
  1,                                      !- Zone Equipment Cooling Sequence 1
  1,                                      !- Zone Equipment Heating or No-Load Sequence 1
  {14a6bb0b-0500-4bc9-a224-9a6909fa81f8}, !- Zone Equipment Sequential Cooling Fraction Schedule Name 1
  {6b3d4cb9-a4c1-4f4f-9abd-24c4f398adf1}; !- Zone Equipment Sequential Heating Fraction Schedule Name 1

OS:AdditionalProperties,
  {99333dc0-a0b5-4e9f-aff5-5d1e07fc9807}, !- Handle
  {bc59c48f-031b-42fc-abfa-dd34ca579341}, !- Object Name
  ObjectType,                             !- Feature Name 1
  String,                                 !- Feature Data Type 1
  conditioned space;                      !- Feature Value 1

OS:Space,
  {8f9061c7-4797-4da9-846e-b43b937a07a8}, !- Handle
  conditioned space 1,                    !- Name
  ,                                       !- Space Type Name
  ,                                       !- Default Construction Set Name
  ,                                       !- Default Schedule Set Name
  ,                                       !- Direction of Relative North {deg}
  ,                                       !- X Origin {m}
  ,                                       !- Y Origin {m}
  ,                                       !- Z Origin {m}
  ,                                       !- Building Story Name
  {bc59c48f-031b-42fc-abfa-dd34ca579341}, !- Thermal Zone Name
  ,                                       !- Part of Total Floor Area
  ,                                       !- Design Specification Outdoor Air Object Name
  ,                                       !- Building Unit Name
  346.03186535424;                        !- Volume {m3}

OS:Schedule:Ruleset,
  {d66ee5ec-302c-479a-8450-444d161f9bb1}, !- Handle
  heating setpoint,                       !- Name
  {11037758-4546-491e-b0ee-90b32feb3fd8}, !- Schedule Type Limits Name
  {b730c8cc-4e47-46b7-8dfb-ac024d4cfb3c}; !- Default Day Schedule Name

OS:Schedule:Day,
  {b730c8cc-4e47-46b7-8dfb-ac024d4cfb3c}, !- Handle
  heating setpoint default day,           !- Name
  {11037758-4546-491e-b0ee-90b32feb3fd8}, !- Schedule Type Limits Name
  ,                                       !- Interpolate to Timestep
  24,                                     !- Hour 1
  0,                                      !- Minute 1
  0;                                      !- Value Until Time 1

OS:Schedule:Rule,
  {885a80df-eae7-465b-a5ab-3545ea76f12c}, !- Handle
  heating setpoint allday rule,           !- Name
  {d66ee5ec-302c-479a-8450-444d161f9bb1}, !- Schedule Ruleset Name
  0,                                      !- Rule Order
  {2a9046fb-1b3f-4010-b8f6-5e1f773c4645}, !- Day Schedule Name
  Yes,                                    !- Apply Sunday
  Yes,                                    !- Apply Monday
  Yes,                                    !- Apply Tuesday
  Yes,                                    !- Apply Wednesday
  Yes,                                    !- Apply Thursday
  Yes,                                    !- Apply Friday
  Yes,                                    !- Apply Saturday
  DateRange,                              !- Date Specification Type
  1,                                      !- Start Month
  1,                                      !- Start Day
  12,                                     !- End Month
  31;                                     !- End Day

OS:Schedule:Day,
  {2a9046fb-1b3f-4010-b8f6-5e1f773c4645}, !- Handle
  heating setpoint day,                   !- Name
  {11037758-4546-491e-b0ee-90b32feb3fd8}, !- Schedule Type Limits Name
  ,                                       !- Interpolate to Timestep
  24,                                     !- Hour 1
  0,                                      !- Minute 1
  20;                                     !- Value Until Time 1

OS:Schedule:Ruleset,
  {f79fc1f4-f2b7-4dde-a23f-e7859e3076b5}, !- Handle
  cooling setpoint,                       !- Name
  {11037758-4546-491e-b0ee-90b32feb3fd8}, !- Schedule Type Limits Name
  {63dcbb95-f657-49f6-ac13-e64dcd9624c8}; !- Default Day Schedule Name

OS:Schedule:Day,
  {63dcbb95-f657-49f6-ac13-e64dcd9624c8}, !- Handle
  cooling setpoint default day,           !- Name
  {11037758-4546-491e-b0ee-90b32feb3fd8}, !- Schedule Type Limits Name
  ,                                       !- Interpolate to Timestep
  24,                                     !- Hour 1
  0,                                      !- Minute 1
  0;                                      !- Value Until Time 1

OS:Schedule:Rule,
  {3a69f380-c195-4907-a738-ef78610cfa87}, !- Handle
  cooling setpoint allday rule,           !- Name
  {f79fc1f4-f2b7-4dde-a23f-e7859e3076b5}, !- Schedule Ruleset Name
  0,                                      !- Rule Order
  {01f047e2-a17c-4b28-a052-7202771be7ea}, !- Day Schedule Name
  Yes,                                    !- Apply Sunday
  Yes,                                    !- Apply Monday
  Yes,                                    !- Apply Tuesday
  Yes,                                    !- Apply Wednesday
  Yes,                                    !- Apply Thursday
  Yes,                                    !- Apply Friday
  Yes,                                    !- Apply Saturday
  DateRange,                              !- Date Specification Type
  1,                                      !- Start Month
  1,                                      !- Start Day
  12,                                     !- End Month
  31;                                     !- End Day

OS:Schedule:Day,
  {01f047e2-a17c-4b28-a052-7202771be7ea}, !- Handle
  cooling setpoint day,                   !- Name
  {11037758-4546-491e-b0ee-90b32feb3fd8}, !- Schedule Type Limits Name
  ,                                       !- Interpolate to Timestep
  24,                                     !- Hour 1
  0,                                      !- Minute 1
  25.5555555555556;                       !- Value Until Time 1

OS:ThermostatSetpoint:DualSetpoint,
  {06e8d58d-3eea-4d11-a983-dda4be3c1670}, !- Handle
  conditioned space temperature setpoint, !- Name
  {d66ee5ec-302c-479a-8450-444d161f9bb1}, !- Heating Setpoint Temperature Schedule Name
  {f79fc1f4-f2b7-4dde-a23f-e7859e3076b5}, !- Cooling Setpoint Temperature Schedule Name
  0;                                      !- Temperature Difference Between Cutout And Setpoint {deltaC}

OS:ScheduleTypeLimits,
  {11037758-4546-491e-b0ee-90b32feb3fd8}, !- Handle
  Temperature,                            !- Name
  ,                                       !- Lower Limit Value
  ,                                       !- Upper Limit Value
  Continuous,                             !- Numeric Type
  Temperature;                            !- Unit Type

OS:Surface,
  {bc35bbaf-934f-4a82-a557-eb32eb0b331e}, !- Handle
  Roof1,                                  !- Name
  RoofCeiling,                            !- Surface Type
  {8d95cc41-e0e9-4f9d-a0c4-1425abbb3080}, !- Construction Name
  {8f9061c7-4797-4da9-846e-b43b937a07a8}, !- Space Name
  Outdoors,                               !- Outside Boundary Condition
  ,                                       !- Outside Boundary Condition Object
  SunExposed,                             !- Sun Exposure
  WindExposed,                            !- Wind Exposure
  ,                                       !- View Factor to Ground
  ,                                       !- Number of Vertices
  -4.86320793386423, 4.86320793386423, 2.4384, !- X,Y,Z Vertex 1 {m}
  -4.86320793386423, -4.86320793386423, 2.4384, !- X,Y,Z Vertex 2 {m}
  4.86320793386423, -4.86320793386423, 2.4384, !- X,Y,Z Vertex 3 {m}
  4.86320793386423, 4.86320793386423, 2.4384; !- X,Y,Z Vertex 4 {m}

OS:AdditionalProperties,
  {d99e6865-f631-4aa2-bf7f-a2a7edcfe2f5}, !- Handle
  {bc35bbaf-934f-4a82-a557-eb32eb0b331e}, !- Object Name
  Length,                                 !- Feature Name 1
  Double,                                 !- Feature Data Type 1
  31.910813214332222,                     !- Feature Value 1
  Width,                                  !- Feature Name 2
  Double,                                 !- Feature Data Type 2
  31.910813214332222,                     !- Feature Value 2
  Azimuth,                                !- Feature Name 3
  Integer,                                !- Feature Data Type 3
  0,                                      !- Feature Value 3
  Tilt,                                   !- Feature Name 4
  Double,                                 !- Feature Data Type 4
  0,                                      !- Feature Value 4
  SurfaceType,                            !- Feature Name 5
  String,                                 !- Feature Data Type 5
  Roof;                                   !- Feature Value 5

OS:Material,
  {f956b2b8-99a3-4832-8214-ee692366fad1}, !- Handle
  asphalt or fiberglass shingles,         !- Name
  Rough,                                  !- Roughness
  0.00635,                                !- Thickness {m}
  0.162714,                               !- Conductivity {W/m-K}
  1121.4,                                 !- Density {kg/m3}
  1465.45,                                !- Specific Heat {J/kg-K}
  0.9,                                    !- Thermal Absorptance
  0.85,                                   !- Solar Absorptance
  0.85;                                   !- Visible Absorptance

OS:Material,
  {93593864-ab7f-42ef-86b5-8668e0c133c8}, !- Handle
  roof stud and cavity,                   !- Name
  Rough,                                  !- Roughness
  0.0889,                                 !- Thickness {m}
  0.491900632004487,                      !- Conductivity {W/m-K}
  50.32683,                               !- Density {kg/m3}
  1063.80987585548,                       !- Specific Heat {J/kg-K}
  0.9,                                    !- Thermal Absorptance
  0.7,                                    !- Solar Absorptance
  0.7;                                    !- Visible Absorptance

OS:Material,
  {f6038c92-3404-4fa5-b76e-2f14f1981806}, !- Handle
  gypsum board,                           !- Name
  Rough,                                  !- Roughness
  0.00254,                                !- Thickness {m}
  0.1602906,                              !- Conductivity {W/m-K}
  801,                                    !- Density {kg/m3}
  837.4,                                  !- Specific Heat {J/kg-K}
  0.9,                                    !- Thermal Absorptance
  0.6,                                    !- Solar Absorptance
  0.6;                                    !- Visible Absorptance

OS:Construction,
  {8d95cc41-e0e9-4f9d-a0c4-1425abbb3080}, !- Handle
  Roof1 construction,                     !- Name
  ,                                       !- Surface Rendering Name
  {f956b2b8-99a3-4832-8214-ee692366fad1}, !- Layer 1
  {93593864-ab7f-42ef-86b5-8668e0c133c8}, !- Layer 2
  {f6038c92-3404-4fa5-b76e-2f14f1981806}; !- Layer 3

OS:Surface,
  {8f290549-3be9-451e-aaf3-8a8357e6149b}, !- Handle
  Wall1,                                  !- Name
  Wall,                                   !- Surface Type
  {aa1568bd-799d-484d-91c1-5039caad278d}, !- Construction Name
  {8f9061c7-4797-4da9-846e-b43b937a07a8}, !- Space Name
  Outdoors,                               !- Outside Boundary Condition
  ,                                       !- Outside Boundary Condition Object
  SunExposed,                             !- Sun Exposure
  WindExposed,                            !- Wind Exposure
  ,                                       !- View Factor to Ground
  ,                                       !- Number of Vertices
  -24.069675, 24.9987054, 0,              !- X,Y,Z Vertex 1 {m}
  -24.069675, 24.9987054, 4.8768,         !- X,Y,Z Vertex 2 {m}
  -17.192625, 24.9987054, 4.8768,         !- X,Y,Z Vertex 3 {m}
  -17.192625, 24.9987054, 0;              !- X,Y,Z Vertex 4 {m}

OS:AdditionalProperties,
  {e8c02c7b-d5da-43ff-a442-daa1822a2e37}, !- Handle
  {8f290549-3be9-451e-aaf3-8a8357e6149b}, !- Object Name
  Length,                                 !- Feature Name 1
  Double,                                 !- Feature Data Type 1
  22.5625,                                !- Feature Value 1
  Azimuth,                                !- Feature Name 2
  Integer,                                !- Feature Data Type 2
  0,                                      !- Feature Value 2
  Tilt,                                   !- Feature Name 3
  Double,                                 !- Feature Data Type 3
  90,                                     !- Feature Value 3
  SurfaceType,                            !- Feature Name 4
  String,                                 !- Feature Data Type 4
  Wall;                                   !- Feature Value 4

OS:Material,
  {1615a04f-2b3a-4f20-a8a7-d98b1f78d18c}, !- Handle
  wood siding,                            !- Name
  Rough,                                  !- Roughness
  0.0254,                                 !- Thickness {m}
  0.1024175,                              !- Conductivity {W/m-K}
  544.68,                                 !- Density {kg/m3}
  1172.36,                                !- Specific Heat {J/kg-K}
  0.9,                                    !- Thermal Absorptance
  0.7,                                    !- Solar Absorptance
  0.7;                                    !- Visible Absorptance

OS:Material,
  {6a9a71bb-eae9-4733-bc98-eee96b1c838a}, !- Handle
  osb sheathing 0.5 in.,                  !- Name
  Rough,                                  !- Roughness
  0.0127,                                 !- Thickness {m}
  0.1154577,                              !- Conductivity {W/m-K}
  512.64,                                 !- Density {kg/m3}
  1214.23,                                !- Specific Heat {J/kg-K}
  0.9,                                    !- Thermal Absorptance
  0.7,                                    !- Solar Absorptance
  0.7;                                    !- Visible Absorptance

OS:Material,
  {2dffb794-cfbe-47ee-99da-6c7fe0bbfa23}, !- Handle
  wall stud and cavity,                   !- Name
  Rough,                                  !- Roughness
  0.1397,                                 !- Thickness {m}
  0.0929021674204099,                     !- Conductivity {W/m-K}
  139.0536,                               !- Density {kg/m3}
  1170.23755760369,                       !- Specific Heat {J/kg-K}
  0.9,                                    !- Thermal Absorptance
  0.7,                                    !- Solar Absorptance
  0.7;                                    !- Visible Absorptance

OS:Material,
  {20b25922-28b0-48b8-9c63-1382d2f10896}, !- Handle
  gypsum board 1,                         !- Name
  Rough,                                  !- Roughness
  0.0127,                                 !- Thickness {m}
  0.1602906,                              !- Conductivity {W/m-K}
  801,                                    !- Density {kg/m3}
  837.4,                                  !- Specific Heat {J/kg-K}
  0.9,                                    !- Thermal Absorptance
  0.6,                                    !- Solar Absorptance
  0.6;                                    !- Visible Absorptance

OS:Construction,
  {aa1568bd-799d-484d-91c1-5039caad278d}, !- Handle
  Wall1 construction,                     !- Name
  ,                                       !- Surface Rendering Name
  {1615a04f-2b3a-4f20-a8a7-d98b1f78d18c}, !- Layer 1
  {6a9a71bb-eae9-4733-bc98-eee96b1c838a}, !- Layer 2
  {2dffb794-cfbe-47ee-99da-6c7fe0bbfa23}, !- Layer 3
  {20b25922-28b0-48b8-9c63-1382d2f10896}; !- Layer 4

OS:Surface,
  {bfae720d-71b5-417f-9a14-8855720a46cf}, !- Handle
  Wall2,                                  !- Name
  Wall,                                   !- Surface Type
  {3c6a0132-2d6e-4698-8c6c-d3911169ce9f}, !- Construction Name
  {8f9061c7-4797-4da9-846e-b43b937a07a8}, !- Space Name
  Outdoors,                               !- Outside Boundary Condition
  ,                                       !- Outside Boundary Condition Object
  SunExposed,                             !- Sun Exposure
  WindExposed,                            !- Wind Exposure
  ,                                       !- View Factor to Ground
  ,                                       !- Number of Vertices
  24.9987054, -21.5601804, 0,             !- X,Y,Z Vertex 1 {m}
  24.9987054, -21.5601804, 4.8768,        !- X,Y,Z Vertex 2 {m}
  24.9987054, -24.9987054, 4.8768,        !- X,Y,Z Vertex 3 {m}
  24.9987054, -24.9987054, 0;             !- X,Y,Z Vertex 4 {m}

OS:AdditionalProperties,
  {bfabadb9-9fb9-4a55-84ab-edde71cbebc6}, !- Handle
  {bfae720d-71b5-417f-9a14-8855720a46cf}, !- Object Name
  Length,                                 !- Feature Name 1
  Double,                                 !- Feature Data Type 1
  11.28125,                               !- Feature Value 1
  Azimuth,                                !- Feature Name 2