
OS:Version,
  {b56ca43c-6c0a-4fde-8713-551bbecb2e2f}, !- Handle
  3.10.0;                                 !- Version Identifier

OS:SimulationControl,
  {eef209f9-07c3-4594-8ec5-a5c539149fbc}, !- Handle
  ,                                       !- Do Zone Sizing Calculation
  ,                                       !- Do System Sizing Calculation
  ,                                       !- Do Plant Sizing Calculation
  No;                                     !- Run Simulation for Sizing Periods

OS:Timestep,
  {833ac805-a6bc-40f4-807a-74a340d8d34b}, !- Handle
  1;                                      !- Number of Timesteps per Hour

OS:ShadowCalculation,
  {1b930a1a-93af-43b7-a10b-5e4e83d16c11}, !- Handle
  PolygonClipping,                        !- Shading Calculation Method
  ,                                       !- Shading Calculation Update Frequency Method
  20,                                     !- Shading Calculation Update Frequency
  200,                                    !- Maximum Figures in Shadow Overlap Calculations
  ,                                       !- Polygon Clipping Algorithm
  512,                                    !- Pixel Counting Resolution
  ,                                       !- Sky Diffuse Modeling Algorithm
  No,                                     !- Output External Shading Calculation Results
  No,                                     !- Disable Self-Shading Within Shading Zone Groups
  No;                                     !- Disable Self-Shading From Shading Zone Groups to Other Zones

OS:SurfaceConvectionAlgorithm:Outside,
  {b2e1608a-8d1f-4295-bcb4-340145f17eca}, !- Handle
  DOE-2;                                  !- Algorithm

OS:SurfaceConvectionAlgorithm:Inside,
  {c1a9d728-b780-4262-a7ea-dc04a962afb0}, !- Handle
  TARP;                                   !- Algorithm

OS:ZoneCapacitanceMultiplier:ResearchSpecial,
  {65ba7811-317c-41cc-bad7-0f9613daaeaa}, !- Handle
  7,                                      !- Temperature Capacity Multiplier
  15,                                     !- Humidity Capacity Multiplier
  ;                                       !- Carbon Dioxide Capacity Multiplier

OS:ConvergenceLimits,
  {787ebc85-1623-452d-ae30-7dee18687819}, !- Handle
  0;                                      !- Minimum System Timestep {minutes}

OS:RunPeriod,
  {fb2fc44d-534f-438a-bafb-ed0ce3e4c455}, !- Handle
  Run Period 1,                           !- Name
  1,                                      !- Begin Month
  1,                                      !- Begin Day of Month
  12,                                     !- End Month
  31,                                     !- End Day of Month
  ,                                       !- Use Weather File Holidays and Special Days
  ,                                       !- Use Weather File Daylight Saving Period
  ,                                       !- Apply Weekend Holiday Rule
  ,                                       !- Use Weather File Rain Indicators
  ,                                       !- Use Weather File Snow Indicators
  ;                                       !- Number of Times Runperiod to be Repeated

OS:PerformancePrecisionTradeoffs,
  {2ddc5f9b-5a76-4794-a171-e4f13010c3aa}, !- Handle
  ,                                       !- Use Coil Direct Solutions
  CarrollMRT;                             !- Zone Radiant Exchange Algorithm

OS:WeatherFile,
  {aa27f5c8-db09-425a-8bc6-0f6f7c628e5b}, !- Handle
  Buffalo Niagara Intl Ap,                !- City
  NY,                                     !- State Province Region
  USA,                                    !- Country
  TMY3,                                   !- Data Source
  725280,                                 !- WMO Number
  42.93,                                  !- Latitude {deg}
  -78.73,                                 !- Longitude {deg}
  -5,                                     !- Time Zone {hr}
  215,                                    !- Elevation {m}
  /Users/nmoore/github/urbanopt-example-geojson-project/example_project/weather/USA_NY_Buffalo-Greater.Buffalo.Intl.AP.725280_TMY3.epw, !- Url
  6B50E0FF,                               !- Checksum
  ,                                       !- Start Date Actual Year
  Sunday;                                 !- Start Day of Week

OS:YearDescription,
  {fd90de10-2983-4f96-801f-b903796ff42f}, !- Handle
  2007,                                   !- Calendar Year
  ,                                       !- Day of Week for Start Day
  ;                                       !- Is Leap Year

OS:Site,
  {95b480d8-2c03-4040-96cb-95d3aa7e6dcd}, !- Handle
  Buffalo Niagara Intl Ap_NY,             !- Name
  42.93,                                  !- Latitude {deg}
  -78.73,                                 !- Longitude {deg}
  -5,                                     !- Time Zone {hr}
  215,                                    !- Elevation {m}
  Suburbs,                                !- Terrain
  Yes;                                    !- Keep Site Location Information

OS:RunPeriodControl:DaylightSavingTime,
  {67b4314e-6f9d-43ca-9c38-69c703719125}, !- Handle
  Mar 12,                                 !- Start Date
  Nov 5;                                  !- End Date

OS:Site:GroundTemperature:Shallow,
  {42e79e10-9b1f-4422-9672-9e8763fe1f15}, !- Handle
  4.30207395723828,                       !- January Surface Ground Temperature {C}
  2.29327249652502,                       !- February Surface Ground Temperature {C}
  2.13240047156047,                       !- March Surface Ground Temperature {C}
  3.08567940719286,                       !- April Surface Ground Temperature {C}
  6.91256312497526,                       !- May Surface Ground Temperature {C}
  10.7216195949507,                       !- June Surface Ground Temperature {C}
  14.0238679822574,                       !- July Surface Ground Temperature {C}
  16.1157611184724,                       !- August Surface Ground Temperature {C}
  16.2934789303462,                       !- September Surface Ground Temperature {C}
  14.5920754632847,                       !- October Surface Ground Temperature {C}
  11.374036348653,                        !- November Surface Ground Temperature {C}
  7.68182621661674;                       !- December Surface Ground Temperature {C}

OS:ThermalZone,
  {9e5775a3-8b9e-481e-a4ba-8b0c3b93a6ef}, !- Handle
  conditioned space,                      !- Name
  1,                                      !- Multiplier
  ,                                       !- Ceiling Height {m}
  692.06373070848,                        !- Volume {m3}
  ,                                       !- Floor Area {m2}
  ,                                       !- Zone Inside Convection Algorithm
  ,                                       !- Zone Outside Convection Algorithm
  ,                                       !- Zone Conditioning Equipment List Name
  {244fa21a-840a-47b5-8160-d3db214d19c8}, !- Zone Air Inlet Port List
  {4dfa431d-1f51-4700-a559-92830189984d}, !- Zone Air Exhaust Port List
  {484d4fc2-edbd-41d6-a193-a11af17f56bb}, !- Zone Air Node Name
  {44fd8b24-b2d5-4f05-92dc-b2b4c9618768}, !- Zone Return Air Port List
  ,                                       !- Primary Daylighting Control Name
  ,                                       !- Fraction of Zone Controlled by Primary Daylighting Control
  ,                                       !- Secondary Daylighting Control Name
  ,                                       !- Fraction of Zone Controlled by Secondary Daylighting Control
  ,                                       !- Illuminance Map Name
  ,                                       !- Group Rendering Name
  {79eefeb9-e11f-415e-ba45-158961777169}, !- Thermostat Name
  No;                                     !- Use Ideal Air Loads

OS:Node,
  {95cd6b83-eb17-47ce-8a89-541ffa70bb70}, !- Handle
  Node 1,                                 !- Name
  {484d4fc2-edbd-41d6-a193-a11af17f56bb}, !- Inlet Port
  ;                                       !- Outlet Port

OS:Connection,
  {484d4fc2-edbd-41d6-a193-a11af17f56bb}, !- Handle
  {9e5775a3-8b9e-481e-a4ba-8b0c3b93a6ef}, !- Source Object
  11,                                     !- Outlet Port
  {95cd6b83-eb17-47ce-8a89-541ffa70bb70}, !- Target Object
  2;                                      !- Inlet Port

OS:PortList,
  {244fa21a-840a-47b5-8160-d3db214d19c8}, !- Handle
  {9e5775a3-8b9e-481e-a4ba-8b0c3b93a6ef}, !- HVAC Component
  {540069c0-a31e-4666-adb3-ad0b9ec9b7a7}; !- Port 1

OS:PortList,
  {4dfa431d-1f51-4700-a559-92830189984d}, !- Handle
  {9e5775a3-8b9e-481e-a4ba-8b0c3b93a6ef}; !- HVAC Component

OS:PortList,
  {44fd8b24-b2d5-4f05-92dc-b2b4c9618768}, !- Handle
  {9e5775a3-8b9e-481e-a4ba-8b0c3b93a6ef}, !- HVAC Component
  {2c63086b-ff4d-460e-bd00-a8e0241de326}; !- Port 1

OS:Sizing:Zone,
  {d65039e2-5b40-49b2-811c-633e4730dbff}, !- Handle
  {9e5775a3-8b9e-481e-a4ba-8b0c3b93a6ef}, !- Zone or ZoneList Name
  SupplyAirTemperature,                   !- Zone Cooling Design Supply Air Temperature Input Method
  14,                                     !- Zone Cooling Design Supply Air Temperature {C}
  11.11,                                  !- Zone Cooling Design Supply Air Temperature Difference {deltaC}
  SupplyAirTemperature,                   !- Zone Heating Design Supply Air Temperature Input Method
  40,                                     !- Zone Heating Design Supply Air Temperature {C}
  11.11,                                  !- Zone Heating Design Supply Air Temperature Difference {deltaC}
  0.0085,                                 !- Zone Cooling Design Supply Air Humidity Ratio {kg-H2O/kg-air}
  0.008,                                  !- Zone Heating Design Supply Air Humidity Ratio {kg-H2O/kg-air}
  ,                                       !- Zone Heating Sizing Factor
  ,                                       !- Zone Cooling Sizing Factor
  DesignDay,                              !- Cooling Design Air Flow Method
  ,                                       !- Cooling Design Air Flow Rate {m3/s}
  ,                                       !- Cooling Minimum Air Flow per Zone Floor Area {m3/s-m2}
  ,                                       !- Cooling Minimum Air Flow {m3/s}
  ,                                       !- Cooling Minimum Air Flow Fraction
  DesignDay,                              !- Heating Design Air Flow Method
  ,                                       !- Heating Design Air Flow Rate {m3/s}
  ,                                       !- Heating Maximum Air Flow per Zone Floor Area {m3/s-m2}
  ,                                       !- Heating Maximum Air Flow {m3/s}
  ,                                       !- Heating Maximum Air Flow Fraction
  No,                                     !- Account for Dedicated Outdoor Air System
  NeutralSupplyAir,                       !- Dedicated Outdoor Air System Control Strategy
  autosize,                               !- Dedicated Outdoor Air Low Setpoint Temperature for Design {C}
  autosize,                               !- Dedicated Outdoor Air High Setpoint Temperature for Design {C}
  Sensible Load Only No Latent Load,      !- Zone Load Sizing Method
  HumidityRatioDifference,                !- Zone Latent Cooling Design Supply Air Humidity Ratio Input Method
  ,                                       !- Zone Dehumidification Design Supply Air Humidity Ratio {kgWater/kgDryAir}
  0.005,                                  !- Zone Cooling Design Supply Air Humidity Ratio Difference {kgWater/kgDryAir}
  HumidityRatioDifference,                !- Zone Latent Heating Design Supply Air Humidity Ratio Input Method
  ,                                       !- Zone Humidification Design Supply Air Humidity Ratio {kgWater/kgDryAir}
  0.005,                                  !- Zone Humidification Design Supply Air Humidity Ratio Difference {kgWater/kgDryAir}
  ,                                       !- Zone Humidistat Dehumidification Set Point Schedule Name
  ,                                       !- Zone Humidistat Humidification Set Point Schedule Name
  ,                                       !- Design Zone Air Distribution Effectiveness in Cooling Mode
  ,                                       !- Design Zone Air Distribution Effectiveness in Heating Mode
  ,                                       !- Design Zone Secondary Recirculation Fraction {dimensionless}
  ,                                       !- Design Minimum Zone Ventilation Efficiency {dimensionless}
  Coincident;                             !- Sizing Option

OS:ZoneHVAC:EquipmentList,
  {3d1b0ab9-8eba-4bf3-8b98-3134041c9cf0}, !- Handle
  Zone HVAC Equipment List 1,             !- Name
  {9e5775a3-8b9e-481e-a4ba-8b0c3b93a6ef}, !- Thermal Zone
  ,                                       !- Load Distribution Scheme
  {7162554f-81d4-4ad4-bc4b-eda1c00b6a51}, !- Zone Equipment 1
  1,                                      !- Zone Equipment Cooling Sequence 1
  1,                                      !- Zone Equipment Heating or No-Load Sequence 1
  {d5419c7d-5982-4521-8829-40257edf5043}, !- Zone Equipment Sequential Cooling Fraction Schedule Name 1
  {7ff9a4a9-1b13-4348-bb54-1b22e71c68b0}; !- Zone Equipment Sequential Heating Fraction Schedule Name 1

OS:AdditionalProperties,
  {339c6132-fa85-4730-a800-2308df90bdfc}, !- Handle
  {9e5775a3-8b9e-481e-a4ba-8b0c3b93a6ef}, !- Object Name
  ObjectType,                             !- Feature Name 1
  String,                                 !- Feature Data Type 1
  conditioned space;                      !- Feature Value 1

OS:Space,
  {e33c2173-36d6-4d13-9f18-cc1086ddc51e}, !- Handle
  conditioned space 1,                    !- Name
  ,                                       !- Space Type Name
  ,                                       !- Default Construction Set Name
  ,                                       !- Default Schedule Set Name
  ,                                       !- Direction of Relative North {deg}
  ,                                       !- X Origin {m}
  ,                                       !- Y Origin {m}
  ,                                       !- Z Origin {m}
  ,                                       !- Building Story Name
  {9e5775a3-8b9e-481e-a4ba-8b0c3b93a6ef}, !- Thermal Zone Name
  ,                                       !- Part of Total Floor Area
  ,                                       !- Design Specification Outdoor Air Object Name
  ,                                       !- Building Unit Name
  692.06373070848;                        !- Volume {m3}

OS:Schedule:Ruleset,
  {7d64c68d-8e33-4f38-84ac-b4c86ae1dcad}, !- Handle
  heating setpoint,                       !- Name
  {ac1b86ca-73c1-4334-9913-88814627651a}, !- Schedule Type Limits Name
  {2b63d4dc-0eca-4d79-87e6-ee191064b4e4}; !- Default Day Schedule Name

OS:Schedule:Day,
  {2b63d4dc-0eca-4d79-87e6-ee191064b4e4}, !- Handle
  heating setpoint default day,           !- Name
  {ac1b86ca-73c1-4334-9913-88814627651a}, !- Schedule Type Limits Name
  ,                                       !- Interpolate to Timestep
  24,                                     !- Hour 1
  0,                                      !- Minute 1
  0;                                      !- Value Until Time 1

OS:Schedule:Rule,
  {0bfd4621-7659-48cb-9612-8d0961dd84aa}, !- Handle
  heating setpoint allday rule,           !- Name
  {7d64c68d-8e33-4f38-84ac-b4c86ae1dcad}, !- Schedule Ruleset Name
  0,                                      !- Rule Order
  {57befe4e-e801-475c-9151-df8c65b55d38}, !- Day Schedule Name
  Yes,                                    !- Apply Sunday
  Yes,                                    !- Apply Monday
  Yes,                                    !- Apply Tuesday
  Yes,                                    !- Apply Wednesday
  Yes,                                    !- Apply Thursday
  Yes,                                    !- Apply Friday
  Yes,                                    !- Apply Saturday
  DateRange,                              !- Date Specification Type
  1,                                      !- Start Month
  1,                                      !- Start Day
  12,                                     !- End Month
  31;                                     !- End Day

OS:Schedule:Day,
  {57befe4e-e801-475c-9151-df8c65b55d38}, !- Handle
  heating setpoint day,                   !- Name
  {ac1b86ca-73c1-4334-9913-88814627651a}, !- Schedule Type Limits Name
  ,                                       !- Interpolate to Timestep
  24,                                     !- Hour 1
  0,                                      !- Minute 1
  20;                                     !- Value Until Time 1

OS:Schedule:Ruleset,
  {696af3b2-9f1d-43ed-b955-f0e54e5ad036}, !- Handle
  cooling setpoint,                       !- Name
  {ac1b86ca-73c1-4334-9913-88814627651a}, !- Schedule Type Limits Name
  {ad88870d-cdd5-4c78-8ba5-a94a5af45422}; !- Default Day Schedule Name

OS:Schedule:Day,
  {ad88870d-cdd5-4c78-8ba5-a94a5af45422}, !- Handle
  cooling setpoint default day,           !- Name
  {ac1b86ca-73c1-4334-9913-88814627651a}, !- Schedule Type Limits Name
  ,                                       !- Interpolate to Timestep
  24,                                     !- Hour 1
  0,                                      !- Minute 1
  0;                                      !- Value Until Time 1

OS:Schedule:Rule,
  {49c80d47-3a66-441a-bbb2-f78261f8bcba}, !- Handle
  cooling setpoint allday rule,           !- Name
  {696af3b2-9f1d-43ed-b955-f0e54e5ad036}, !- Schedule Ruleset Name
  0,                                      !- Rule Order
  {e866a277-febd-47fd-8116-174daeb44641}, !- Day Schedule Name
  Yes,                                    !- Apply Sunday
  Yes,                                    !- Apply Monday
  Yes,                                    !- Apply Tuesday
  Yes,                                    !- Apply Wednesday
  Yes,                                    !- Apply Thursday
  Yes,                                    !- Apply Friday
  Yes,                                    !- Apply Saturday
  DateRange,                              !- Date Specification Type
  1,                                      !- Start Month
  1,                                      !- Start Day
  12,                                     !- End Month
  31;                                     !- End Day

OS:Schedule:Day,
  {e866a277-febd-47fd-8116-174daeb44641}, !- Handle
  cooling setpoint day,                   !- Name
  {ac1b86ca-73c1-4334-9913-88814627651a}, !- Schedule Type Limits Name
  ,                                       !- Interpolate to Timestep
  24,                                     !- Hour 1
  0,                                      !- Minute 1
  25.5555555555556;                       !- Value Until Time 1

OS:ThermostatSetpoint:DualSetpoint,
  {79eefeb9-e11f-415e-ba45-158961777169}, !- Handle
  conditioned space temperature setpoint, !- Name
  {7d64c68d-8e33-4f38-84ac-b4c86ae1dcad}, !- Heating Setpoint Temperature Schedule Name
  {696af3b2-9f1d-43ed-b955-f0e54e5ad036}, !- Cooling Setpoint Temperature Schedule Name
  0;                                      !- Temperature Difference Between Cutout And Setpoint {deltaC}

OS:ScheduleTypeLimits,
  {ac1b86ca-73c1-4334-9913-88814627651a}, !- Handle
  Temperature,                            !- Name
  ,                                       !- Lower Limit Value
  ,                                       !- Upper Limit Value
  Continuous,                             !- Numeric Type
  Temperature;                            !- Unit Type

OS:Surface,
  {4538c7a8-f285-46ae-9b08-9a982766fd5d}, !- Handle
  Roof1,                                  !- Name
  RoofCeiling,                            !- Surface Type
  {55b98189-4676-4e2c-b665-b002acce8905}, !- Construction Name
  {91c63e51-5b24-48bc-a53a-df2060303249}, !- Space Name
  Outdoors,                               !- Outside Boundary Condition
  ,                                       !- Outside Boundary Condition Object
  SunExposed,                             !- Sun Exposure
  WindExposed,                            !- Wind Exposure
  ,                                       !- View Factor to Ground
  ,                                       !- Number of Vertices
  -26.9347048849634, 58.0557891618865, 2.4384, !- X,Y,Z Vertex 1 {m}
  -26.9347048849634, 46.7895631136661, 8.0715130241102, !- X,Y,Z Vertex 2 {m}
  -14.3386812381136, 46.7895631136661, 8.0715130241102, !- X,Y,Z Vertex 3 {m}
  -14.3386812381136, 58.0557891618865, 2.4384; !- X,Y,Z Vertex 4 {m}

OS:AdditionalProperties,
  {9d70d8b1-725b-4308-8a62-c5bc60a14657}, !- Handle
  {4538c7a8-f285-46ae-9b08-9a982766fd5d}, !- Object Name
  Length,                                 !- Feature Name 1
  Double,                                 !- Feature Data Type 1
  41.325536899113608,                     !- Feature Value 1
  Width,                                  !- Feature Name 2
  Double,                                 !- Feature Data Type 2
  41.325536899113601,                     !- Feature Value 2
  Azimuth,                                !- Feature Name 3
  Integer,                                !- Feature Data Type 3
  0,                                      !- Feature Value 3
  Tilt,                                   !- Feature Name 4
  Double,                                 !- Feature Data Type 4
  0.5,                                    !- Feature Value 4
  SurfaceType,                            !- Feature Name 5
  String,                                 !- Feature Data Type 5
  Roof;                                   !- Feature Value 5

OS:ThermalZone,
  {4cf62404-ceb8-4798-bb11-866df294c793}, !- Handle
  attic - vented,                         !- Name
  1,                                      !- Multiplier
  ,                                       !- Ceiling Height {m}
  356.390921899745,                       !- Volume {m3}
  ,                                       !- Floor Area {m2}
  ,                                       !- Zone Inside Convection Algorithm
  ,                                       !- Zone Outside Convection Algorithm
  ,                                       !- Zone Conditioning Equipment List Name
  {c717222d-ad3f-4820-b912-96852c0a6eb9}, !- Zone Air Inlet Port List
  {744bea1f-a9a1-45ef-a7f2-f8e30e4232f3}, !- Zone Air Exhaust Port List
  {fe0e0a4c-c1a1-4d14-8f35-4507662790e3}, !- Zone Air Node Name
  {827e56ed-98ed-4656-b9dc-e1143e5f10ac}, !- Zone Return Air Port List
  ,                                       !- Primary Daylighting Control Name
  ,                                       !- Fraction of Zone Controlled by Primary Daylighting Control
  ,                                       !- Secondary Daylighting Control Name
  ,                                       !- Fraction of Zone Controlled by Secondary Daylighting Control
  ,                                       !- Illuminance Map Name
  ,                                       !- Group Rendering Name
  ,                                       !- Thermostat Name
  No;                                     !- Use Ideal Air Loads

OS:Node,
  {b94cd905-eb0e-4e90-b385-54286bdf9519}, !- Handle
  Node 2,                                 !- Name
  {fe0e0a4c-c1a1-4d14-8f35-4507662790e3}, !- Inlet Port
  ;                                       !- Outlet Port

OS:Connection,
  {fe0e0a4c-c1a1-4d14-8f35-4507662790e3}, !- Handle
  {4cf62404-ceb8-4798-bb11-866df294c793}, !- Source Object
  11,                                     !- Outlet Port
  {b94cd905-eb0e-4e90-b385-54286bdf9519}, !- Target Object
  2;                                      !- Inlet Port

OS:PortList,
  {c717222d-ad3f-4820-b912-96852c0a6eb9}, !- Handle
  {4cf62404-ceb8-4798-bb11-866df294c793}; !- HVAC Component

OS:PortList,
  {744bea1f-a9a1-45ef-a7f2-f8e30e4232f3}, !- Handle
  {4cf62404-ceb8-4798-bb11-866df294c793}; !- HVAC Component

OS:PortList,
  {827e56ed-98ed-4656-b9dc-e1143e5f10ac}, !- Handle
  {4cf62404-ceb8-4798-bb11-866df294c793}; !- HVAC Component

OS:Sizing:Zone,
  {ab45a471-2241-4948-ace4-f8d41cdf5e4c}, !- Handle
  {4cf62404-ceb8-4798-bb11-866df294c793}, !- Zone or ZoneList Name
  SupplyAirTemperature,                   !- Zone Cooling Design Supply Air Temperature Input Method
  14,                                     !- Zone Cooling Design Supply Air Temperature {C}
  11.11,                                  !- Zone Cooling Design Supply Air Temperature Difference {deltaC}
  SupplyAirTemperature,                   !- Zone Heating Design Supply Air Temperature Input Method
  40,                                     !- Zone Heating Design Supply Air Temperature {C}
  11.11,                                  !- Zone Heating Design Supply Air Temperature Difference {deltaC}
  0.0085,                                 !- Zone Cooling Design Supply Air Humidity Ratio {kg-H2O/kg-air}
  0.008,                                  !- Zone Heating Design Supply Air Humidity Ratio {kg-H2O/kg-air}
  ,                                       !- Zone Heating Sizing Factor
  ,                                       !- Zone Cooling Sizing Factor
  DesignDay,                              !- Cooling Design Air Flow Method
  ,                                       !- Cooling Design Air Flow Rate {m3/s}
  ,                                       !- Cooling Minimum Air Flow per Zone Floor Area {m3/s-m2}
  ,                                       !- Cooling Minimum Air Flow {m3/s}
  ,                                       !- Cooling Minimum Air Flow Fraction
  DesignDay,                              !- Heating Design Air Flow Method
  ,                                       !- Heating Design Air Flow Rate {m3/s}
  ,                                       !- Heating Maximum Air Flow per Zone Floor Area {m3/s-m2}
  ,                                       !- Heating Maximum Air Flow {m3/s}
  ,                                       !- Heating Maximum Air Flow Fraction
  No,                                     !- Account for Dedicated Outdoor Air System
  NeutralSupplyAir,                       !- Dedicated Outdoor Air System Control Strategy
  autosize,                               !- Dedicated Outdoor Air Low Setpoint Temperature for Design {C}
  autosize,                               !- Dedicated Outdoor Air High Setpoint Temperature for Design {C}
  Sensible Load Only No Latent Load,      !- Zone Load Sizing Method
  HumidityRatioDifference,                !- Zone Latent Cooling Design Supply Air Humidity Ratio Input Method
  ,                                       !- Zone Dehumidification Design Supply Air Humidity Ratio {kgWater/kgDryAir}
  0.005,                                  !- Zone Cooling Design Supply Air Humidity Ratio Difference {kgWater/kgDryAir}
  HumidityRatioDifference,                !- Zone Latent Heating Design Supply Air Humidity Ratio Input Method
  ,                                       !- Zone Humidification Design Supply Air Humidity Ratio {kgWater/kgDryAir}
  0.005,                                  !- Zone Humidification Design Supply Air Humidity Ratio Difference {kgWater/kgDryAir}
  ,                                       !- Zone Humidistat Dehumidification Set Point Schedule Name
  ,                                       !- Zone Humidistat Humidification Set Point Schedule Name
  ,                                       !- Design Zone Air Distribution Effectiveness in Cooling Mode
  ,                                       !- Design Zone Air Distribution Effectiveness in Heating Mode
  ,                                       !- Design Zone Secondary Recirculation Fraction {dimensionless}
  ,                                       !- Design Minimum Zone Ventilation Efficiency {dimensionless}
  Coincident;                             !- Sizing Option

OS:ZoneHVAC:EquipmentList,
  {27de3788-506c-4b42-b3a7-2476735c2312}, !- Handle
  Zone HVAC Equipment List 2,             !- Name
  {4cf62404-ceb8-4798-bb11-866df294c793}; !- Thermal Zone

OS:AdditionalProperties,
  {e0f6fab6-3499-4323-bf4b-6c5549dbcd4e}, !- Handle
  {4cf62404-ceb8-4798-bb11-866df294c793}, !- Object Name
  ObjectType,                             !- Feature Name 1
  String,                                 !- Feature Data Type 1
  attic - vented;                         !- Feature Value 1

OS:Space,
  {91c63e51-5b24-48bc-a53a-df2060303249}, !- Handle
  attic - vented 1,                       !- Name
  ,                                       !- Space Type Name
  ,                                       !- Default Construction Set Name
  ,                                       !- Default Schedule Set Name
  ,                                       !- Direction of Relative North {deg}
  ,                                       !- X Origin {m}
  ,                                       !- Y Origin {m}
  ,                                       !- Z Origin {m}
  ,                                       !- Building Story Name
  {4cf62404-ceb8-4798-bb11-866df294c793}, !- Thermal Zone Name
  ,                                       !- Part of Total Floor Area
  ,                                       !- Design Specification Outdoor Air Object Name
  ,                                       !- Building Unit Name
  356.390921899745;                       !- Volume {m3}

OS:Material,
  {79ee5319-a1aa-4e9e-8312-f1a351b8e026}, !- Handle
  asphalt or fiberglass shingles,         !- Name
  Rough,                                  !- Roughness
  0.00635,                                !- Thickness {m}
  0.162714,                               !- Conductivity {W/m-K}
  1121.4,                                 !- Density {kg/m3}
  1465.45,                                !- Specific Heat {J/kg-K}
  0.9,                                    !- Thermal Absorptance
  0.85,                                   !- Solar Absorptance