
OS:Version,
  {6e104e09-68a0-44b0-ab0c-3f03c108dc6b}, !- Handle
  3.9.0;                                  !- Version Identifier

OS:SimulationControl,
  {da15e757-f74b-4d5b-bbec-75fa84bb7ccf}, !- Handle
  ,                                       !- Do Zone Sizing Calculation
  ,                                       !- Do System Sizing Calculation
  ,                                       !- Do Plant Sizing Calculation
  No;                                     !- Run Simulation for Sizing Periods

OS:Timestep,
  {662f8aa9-2373-458b-b224-3712df6b9232}, !- Handle
  1;                                      !- Number of Timesteps per Hour

OS:ShadowCalculation,
  {bd7ffbd0-4525-46be-ad44-13c835b03dfa}, !- Handle
  PolygonClipping,                        !- Shading Calculation Method
  ,                                       !- Shading Calculation Update Frequency Method
  20,                                     !- Shading Calculation Update Frequency
  200,                                    !- Maximum Figures in Shadow Overlap Calculations
  ,                                       !- Polygon Clipping Algorithm
  512,                                    !- Pixel Counting Resolution
  ,                                       !- Sky Diffuse Modeling Algorithm
  No,                                     !- Output External Shading Calculation Results
  No,                                     !- Disable Self-Shading Within Shading Zone Groups
  No;                                     !- Disable Self-Shading From Shading Zone Groups to Other Zones

OS:SurfaceConvectionAlgorithm:Outside,
  {273bf8d3-c443-4370-b1f8-3ec70edf2f47}, !- Handle
  DOE-2;                                  !- Algorithm

OS:SurfaceConvectionAlgorithm:Inside,
  {2fcf785b-cb1e-4ec6-9c32-15b7b203d141}, !- Handle
  TARP;                                   !- Algorithm

OS:ZoneCapacitanceMultiplier:ResearchSpecial,
  {a13e4b0b-abb4-4718-91c9-9989283ede75}, !- Handle
  7,                                      !- Temperature Capacity Multiplier
  15,                                     !- Humidity Capacity Multiplier
  ;                                       !- Carbon Dioxide Capacity Multiplier

OS:ConvergenceLimits,
  {bee2cb9b-d30e-436d-9b58-6814ebf02851}, !- Handle
  0;                                      !- Minimum System Timestep {minutes}

OS:RunPeriod,
  {dff410c4-b80b-466f-ab45-2aa65b1784a6}, !- Handle
  Run Period 1,                           !- Name
  1,                                      !- Begin Month
  1,                                      !- Begin Day of Month
  12,                                     !- End Month
  31,                                     !- End Day of Month
  ,                                       !- Use Weather File Holidays and Special Days
  ,                                       !- Use Weather File Daylight Saving Period
  ,                                       !- Apply Weekend Holiday Rule
  ,                                       !- Use Weather File Rain Indicators
  ,                                       !- Use Weather File Snow Indicators
  ;                                       !- Number of Times Runperiod to be Repeated

OS:PerformancePrecisionTradeoffs,
  {11c1c875-6340-467c-99d9-66d290ab8e61}, !- Handle
  ,                                       !- Use Coil Direct Solutions
  CarrollMRT;                             !- Zone Radiant Exchange Algorithm

OS:WeatherFile,
  {53f27edb-b274-42dc-b2c9-0f509ad36851}, !- Handle
  Buffalo Niagara Intl Ap,                !- City
  NY,                                     !- State Province Region
  USA,                                    !- Country
  TMY3,                                   !- Data Source
  725280,                                 !- WMO Number
  42.93,                                  !- Latitude {deg}
  -78.73,                                 !- Longitude {deg}
  -5,                                     !- Time Zone {hr}
  215,                                    !- Elevation {m}
  /Users/nmoore/github/urbanopt-example-geojson-project/example_project/weather/USA_NY_Buffalo-Greater.Buffalo.Intl.AP.725280_TMY3.epw, !- Url
  6B50E0FF,                               !- Checksum
  ,                                       !- Start Date Actual Year
  Sunday;                                 !- Start Day of Week

OS:YearDescription,
  {443e06d3-fd10-4e97-9b0e-1c33334f2e56}, !- Handle
  2007,                                   !- Calendar Year
  ,                                       !- Day of Week for Start Day
  ;                                       !- Is Leap Year

OS:Site,
  {dcd49fa6-03f9-420c-8113-7ff703a2ccca}, !- Handle
  Buffalo Niagara Intl Ap_NY,             !- Name
  42.93,                                  !- Latitude {deg}
  -78.73,                                 !- Longitude {deg}
  -5,                                     !- Time Zone {hr}
  215,                                    !- Elevation {m}
  Suburbs,                                !- Terrain
  Yes;                                    !- Keep Site Location Information

OS:RunPeriodControl:DaylightSavingTime,
  {00d2abce-331a-4491-8337-c55ae76fbc5d}, !- Handle
  Mar 12,                                 !- Start Date
  Nov 5;                                  !- End Date

OS:Site:GroundTemperature:Shallow,
  {3cb13bc1-1154-4a8d-9292-05b9021c4a38}, !- Handle
  4.30207395723828,                       !- January Surface Ground Temperature {C}
  2.29327249652502,                       !- February Surface Ground Temperature {C}
  2.13240047156047,                       !- March Surface Ground Temperature {C}
  3.08567940719286,                       !- April Surface Ground Temperature {C}
  6.91256312497526,                       !- May Surface Ground Temperature {C}
  10.7216195949507,                       !- June Surface Ground Temperature {C}
  14.0238679822574,                       !- July Surface Ground Temperature {C}
  16.1157611184724,                       !- August Surface Ground Temperature {C}
  16.2934789303462,                       !- September Surface Ground Temperature {C}
  14.5920754632847,                       !- October Surface Ground Temperature {C}
  11.374036348653,                        !- November Surface Ground Temperature {C}
  7.68182621661674;                       !- December Surface Ground Temperature {C}

OS:ThermalZone,
  {0809da3c-652b-4e7b-8199-78e7cc722c61}, !- Handle
  conditioned space,                      !- Name
  1,                                      !- Multiplier
  ,                                       !- Ceiling Height {m}
  692.06373070848,                        !- Volume {m3}
  ,                                       !- Floor Area {m2}
  ,                                       !- Zone Inside Convection Algorithm
  ,                                       !- Zone Outside Convection Algorithm
  ,                                       !- Zone Conditioning Equipment List Name
  {8b62b067-ac41-4c7a-8763-b1768b946c5d}, !- Zone Air Inlet Port List
  {a2989c3e-e81b-4132-8fc5-7ac711e6d1b7}, !- Zone Air Exhaust Port List
  {ddd91eb7-d287-4e87-b0e7-d23c50cede8e}, !- Zone Air Node Name
  {0cff5759-a7b2-4152-a64e-dc6da226c6ff}, !- Zone Return Air Port List
  ,                                       !- Primary Daylighting Control Name
  ,                                       !- Fraction of Zone Controlled by Primary Daylighting Control
  ,                                       !- Secondary Daylighting Control Name
  ,                                       !- Fraction of Zone Controlled by Secondary Daylighting Control
  ,                                       !- Illuminance Map Name
  ,                                       !- Group Rendering Name
  {0108857a-ae27-4c2c-a679-690321ce3ac5}, !- Thermostat Name
  No;                                     !- Use Ideal Air Loads

OS:Node,
  {167924aa-5a15-4ed9-a738-a5a014afc527}, !- Handle
  Node 1,                                 !- Name
  {ddd91eb7-d287-4e87-b0e7-d23c50cede8e}, !- Inlet Port
  ;                                       !- Outlet Port

OS:Connection,
  {ddd91eb7-d287-4e87-b0e7-d23c50cede8e}, !- Handle
  {0809da3c-652b-4e7b-8199-78e7cc722c61}, !- Source Object
  11,                                     !- Outlet Port
  {167924aa-5a15-4ed9-a738-a5a014afc527}, !- Target Object
  2;                                      !- Inlet Port

OS:PortList,
  {8b62b067-ac41-4c7a-8763-b1768b946c5d}, !- Handle
  {0809da3c-652b-4e7b-8199-78e7cc722c61}, !- HVAC Component
  {e71537e3-19c5-4eeb-a1ce-32dd1a83da99}; !- Port 1

OS:PortList,
  {a2989c3e-e81b-4132-8fc5-7ac711e6d1b7}, !- Handle
  {0809da3c-652b-4e7b-8199-78e7cc722c61}; !- HVAC Component

OS:PortList,
  {0cff5759-a7b2-4152-a64e-dc6da226c6ff}, !- Handle
  {0809da3c-652b-4e7b-8199-78e7cc722c61}, !- HVAC Component
  {9b9251f4-5def-466a-8543-fa32e23ed895}; !- Port 1

OS:Sizing:Zone,
  {172952da-5c2e-41db-b45d-fb7caa6fb78a}, !- Handle
  {0809da3c-652b-4e7b-8199-78e7cc722c61}, !- Zone or ZoneList Name
  SupplyAirTemperature,                   !- Zone Cooling Design Supply Air Temperature Input Method
  14,                                     !- Zone Cooling Design Supply Air Temperature {C}
  11.11,                                  !- Zone Cooling Design Supply Air Temperature Difference {deltaC}
  SupplyAirTemperature,                   !- Zone Heating Design Supply Air Temperature Input Method
  40,                                     !- Zone Heating Design Supply Air Temperature {C}
  11.11,                                  !- Zone Heating Design Supply Air Temperature Difference {deltaC}
  0.0085,                                 !- Zone Cooling Design Supply Air Humidity Ratio {kg-H2O/kg-air}
  0.008,                                  !- Zone Heating Design Supply Air Humidity Ratio {kg-H2O/kg-air}
  ,                                       !- Zone Heating Sizing Factor
  ,                                       !- Zone Cooling Sizing Factor
  DesignDay,                              !- Cooling Design Air Flow Method
  ,                                       !- Cooling Design Air Flow Rate {m3/s}
  ,                                       !- Cooling Minimum Air Flow per Zone Floor Area {m3/s-m2}
  ,                                       !- Cooling Minimum Air Flow {m3/s}
  ,                                       !- Cooling Minimum Air Flow Fraction
  DesignDay,                              !- Heating Design Air Flow Method
  ,                                       !- Heating Design Air Flow Rate {m3/s}
  ,                                       !- Heating Maximum Air Flow per Zone Floor Area {m3/s-m2}
  ,                                       !- Heating Maximum Air Flow {m3/s}
  ,                                       !- Heating Maximum Air Flow Fraction
  No,                                     !- Account for Dedicated Outdoor Air System
  NeutralSupplyAir,                       !- Dedicated Outdoor Air System Control Strategy
  autosize,                               !- Dedicated Outdoor Air Low Setpoint Temperature for Design {C}
  autosize,                               !- Dedicated Outdoor Air High Setpoint Temperature for Design {C}
  Sensible Load Only No Latent Load,      !- Zone Load Sizing Method
  HumidityRatioDifference,                !- Zone Latent Cooling Design Supply Air Humidity Ratio Input Method
  ,                                       !- Zone Dehumidification Design Supply Air Humidity Ratio {kgWater/kgDryAir}
  0.005,                                  !- Zone Cooling Design Supply Air Humidity Ratio Difference {kgWater/kgDryAir}
  HumidityRatioDifference,                !- Zone Latent Heating Design Supply Air Humidity Ratio Input Method
  ,                                       !- Zone Humidification Design Supply Air Humidity Ratio {kgWater/kgDryAir}
  0.005,                                  !- Zone Humidification Design Supply Air Humidity Ratio Difference {kgWater/kgDryAir}
  ,                                       !- Zone Humidistat Dehumidification Set Point Schedule Name
  ,                                       !- Zone Humidistat Humidification Set Point Schedule Name
  ,                                       !- Design Zone Air Distribution Effectiveness in Cooling Mode
  ,                                       !- Design Zone Air Distribution Effectiveness in Heating Mode
  ,                                       !- Design Zone Secondary Recirculation Fraction {dimensionless}
  ,                                       !- Design Minimum Zone Ventilation Efficiency {dimensionless}
  Coincident;                             !- Sizing Option

OS:ZoneHVAC:EquipmentList,
  {5b387548-7e76-48b3-b4f5-6673e349b0f9}, !- Handle
  Zone HVAC Equipment List 1,             !- Name
  {0809da3c-652b-4e7b-8199-78e7cc722c61}, !- Thermal Zone
  ,                                       !- Load Distribution Scheme
  {2bdb5a97-9d50-4415-aa7c-6fa97573976a}, !- Zone Equipment 1
  1,                                      !- Zone Equipment Cooling Sequence 1
  1,                                      !- Zone Equipment Heating or No-Load Sequence 1
  {39be71b7-9acb-4f2e-a886-d54d28c9b586}, !- Zone Equipment Sequential Cooling Fraction Schedule Name 1
  {d46c1220-9be6-4d18-842f-a3d5bb61f7f4}; !- Zone Equipment Sequential Heating Fraction Schedule Name 1

OS:AdditionalProperties,
  {57cb53a8-eefe-4d86-beb9-6dcd82de5215}, !- Handle
  {0809da3c-652b-4e7b-8199-78e7cc722c61}, !- Object Name
  ObjectType,                             !- Feature Name 1
  String,                                 !- Feature Data Type 1
  conditioned space;                      !- Feature Value 1

OS:Space,
  {a595b146-1f93-4403-be85-27ae0627bc4b}, !- Handle
  conditioned space 1,                    !- Name
  ,                                       !- Space Type Name
  ,                                       !- Default Construction Set Name
  ,                                       !- Default Schedule Set Name
  ,                                       !- Direction of Relative North {deg}
  ,                                       !- X Origin {m}
  ,                                       !- Y Origin {m}
  ,                                       !- Z Origin {m}
  ,                                       !- Building Story Name
  {0809da3c-652b-4e7b-8199-78e7cc722c61}, !- Thermal Zone Name
  ,                                       !- Part of Total Floor Area
  ,                                       !- Design Specification Outdoor Air Object Name
  ,                                       !- Building Unit Name
  692.06373070848;                        !- Volume {m3}

OS:Schedule:Ruleset,
  {b24274de-c660-40dd-bcb2-de309039d1ec}, !- Handle
  heating setpoint,                       !- Name
  {8cd551c6-2025-4c3f-bf09-273edc51f451}, !- Schedule Type Limits Name
  {a4f81f83-5385-4867-9777-dc0733756798}; !- Default Day Schedule Name

OS:Schedule:Day,
  {a4f81f83-5385-4867-9777-dc0733756798}, !- Handle
  heating setpoint default day,           !- Name
  {8cd551c6-2025-4c3f-bf09-273edc51f451}, !- Schedule Type Limits Name
  ,                                       !- Interpolate to Timestep
  24,                                     !- Hour 1
  0,                                      !- Minute 1
  0;                                      !- Value Until Time 1

OS:Schedule:Rule,
  {bdbd2f50-ff7d-4c2a-9f9f-74aa4c7a44e9}, !- Handle
  heating setpoint allday rule,           !- Name
  {b24274de-c660-40dd-bcb2-de309039d1ec}, !- Schedule Ruleset Name
  0,                                      !- Rule Order
  {bf97a164-fead-466a-91d6-412fb459f0a9}, !- Day Schedule Name
  Yes,                                    !- Apply Sunday
  Yes,                                    !- Apply Monday
  Yes,                                    !- Apply Tuesday
  Yes,                                    !- Apply Wednesday
  Yes,                                    !- Apply Thursday
  Yes,                                    !- Apply Friday
  Yes,                                    !- Apply Saturday
  DateRange,                              !- Date Specification Type
  1,                                      !- Start Month
  1,                                      !- Start Day
  12,                                     !- End Month
  31;                                     !- End Day

OS:Schedule:Day,
  {bf97a164-fead-466a-91d6-412fb459f0a9}, !- Handle
  heating setpoint day,                   !- Name
  {8cd551c6-2025-4c3f-bf09-273edc51f451}, !- Schedule Type Limits Name
  ,                                       !- Interpolate to Timestep
  24,                                     !- Hour 1
  0,                                      !- Minute 1
  20;                                     !- Value Until Time 1

OS:Schedule:Ruleset,
  {9809fc8c-8a5f-48de-9ac4-10aa9640d7a3}, !- Handle
  cooling setpoint,                       !- Name
  {8cd551c6-2025-4c3f-bf09-273edc51f451}, !- Schedule Type Limits Name
  {edd2f43c-a876-474c-ade9-df169c8356e6}; !- Default Day Schedule Name

OS:Schedule:Day,
  {edd2f43c-a876-474c-ade9-df169c8356e6}, !- Handle
  cooling setpoint default day,           !- Name
  {8cd551c6-2025-4c3f-bf09-273edc51f451}, !- Schedule Type Limits Name
  ,                                       !- Interpolate to Timestep
  24,                                     !- Hour 1
  0,                                      !- Minute 1
  0;                                      !- Value Until Time 1

OS:Schedule:Rule,
  {b3a26fb1-89c8-40c9-ad61-45434d134d0f}, !- Handle
  cooling setpoint allday rule,           !- Name
  {9809fc8c-8a5f-48de-9ac4-10aa9640d7a3}, !- Schedule Ruleset Name
  0,                                      !- Rule Order
  {fd0bb999-1e65-4990-9bbb-68a0becb455a}, !- Day Schedule Name
  Yes,                                    !- Apply Sunday
  Yes,                                    !- Apply Monday
  Yes,                                    !- Apply Tuesday
  Yes,                                    !- Apply Wednesday
  Yes,                                    !- Apply Thursday
  Yes,                                    !- Apply Friday
  Yes,                                    !- Apply Saturday
  DateRange,                              !- Date Specification Type
  1,                                      !- Start Month
  1,                                      !- Start Day
  12,                                     !- End Month
  31;                                     !- End Day

OS:Schedule:Day,
  {fd0bb999-1e65-4990-9bbb-68a0becb455a}, !- Handle
  cooling setpoint day,                   !- Name
  {8cd551c6-2025-4c3f-bf09-273edc51f451}, !- Schedule Type Limits Name
  ,                                       !- Interpolate to Timestep
  24,                                     !- Hour 1
  0,                                      !- Minute 1
  25.5555555555556;                       !- Value Until Time 1

OS:ThermostatSetpoint:DualSetpoint,
  {0108857a-ae27-4c2c-a679-690321ce3ac5}, !- Handle
  conditioned space temperature setpoint, !- Name
  {b24274de-c660-40dd-bcb2-de309039d1ec}, !- Heating Setpoint Temperature Schedule Name
  {9809fc8c-8a5f-48de-9ac4-10aa9640d7a3}, !- Cooling Setpoint Temperature Schedule Name
  0;                                      !- Temperature Difference Between Cutout And Setpoint {deltaC}

OS:ScheduleTypeLimits,
  {8cd551c6-2025-4c3f-bf09-273edc51f451}, !- Handle
  Temperature,                            !- Name
  ,                                       !- Lower Limit Value
  ,                                       !- Upper Limit Value
  Continuous,                             !- Numeric Type
  Temperature;                            !- Unit Type

OS:Surface,
  {53194683-be7b-4770-b845-08606d6e9c24}, !- Handle
  Roof1,                                  !- Name
  RoofCeiling,                            !- Surface Type
  {e20176b9-f9b9-435d-812a-fa9986d292a6}, !- Construction Name
  {8b7b27d4-740f-4bf2-b9ed-0ad6f7e11213}, !- Space Name
  Outdoors,                               !- Outside Boundary Condition
  ,                                       !- Outside Boundary Condition Object
  SunExposed,                             !- Sun Exposure
  WindExposed,                            !- Wind Exposure
  ,                                       !- View Factor to Ground
  ,                                       !- Number of Vertices
  -26.9347048849634, 58.0557891618865, 2.4384, !- X,Y,Z Vertex 1 {m}
  -26.9347048849634, 46.7895631136661, 8.0715130241102, !- X,Y,Z Vertex 2 {m}
  -14.3386812381136, 46.7895631136661, 8.0715130241102, !- X,Y,Z Vertex 3 {m}
  -14.3386812381136, 58.0557891618865, 2.4384; !- X,Y,Z Vertex 4 {m}

OS:AdditionalProperties,
  {0ea275c4-0124-4f78-b728-380fbcf25d9f}, !- Handle
  {53194683-be7b-4770-b845-08606d6e9c24}, !- Object Name
  Length,                                 !- Feature Name 1
  Double,                                 !- Feature Data Type 1
  41.325536899113608,                     !- Feature Value 1
  Width,                                  !- Feature Name 2
  Double,                                 !- Feature Data Type 2
  41.325536899113601,                     !- Feature Value 2
  Azimuth,                                !- Feature Name 3
  Integer,                                !- Feature Data Type 3
  0,                                      !- Feature Value 3
  Tilt,                                   !- Feature Name 4
  Double,                                 !- Feature Data Type 4
  0.5,                                    !- Feature Value 4
  SurfaceType,                            !- Feature Name 5
  String,                                 !- Feature Data Type 5
  Roof;                                   !- Feature Value 5

OS:ThermalZone,
  {56600d24-546f-4b7a-9734-083e44942d71}, !- Handle
  attic - vented,                         !- Name
  1,                                      !- Multiplier
  ,                                       !- Ceiling Height {m}
  356.389957095237,                       !- Volume {m3}
  ,                                       !- Floor Area {m2}
  ,                                       !- Zone Inside Convection Algorithm
  ,                                       !- Zone Outside Convection Algorithm
  ,                                       !- Zone Conditioning Equipment List Name
  {9c880e1c-adf2-48f3-b477-07911b2d9982}, !- Zone Air Inlet Port List
  {42e89fab-bb14-4f7c-a2bf-40119e5f8eb7}, !- Zone Air Exhaust Port List
  {ad73c401-36a3-4e19-a35d-c70a1dea7a0b}, !- Zone Air Node Name
  {7c070d56-af47-4cbd-bd23-d25d7f58803e}, !- Zone Return Air Port List
  ,                                       !- Primary Daylighting Control Name
  ,                                       !- Fraction of Zone Controlled by Primary Daylighting Control
  ,                                       !- Secondary Daylighting Control Name
  ,                                       !- Fraction of Zone Controlled by Secondary Daylighting Control
  ,                                       !- Illuminance Map Name
  ,                                       !- Group Rendering Name
  ,                                       !- Thermostat Name
  No;                                     !- Use Ideal Air Loads

OS:Node,
  {a3ada473-6360-4968-8636-104ca9875584}, !- Handle
  Node 2,                                 !- Name
  {ad73c401-36a3-4e19-a35d-c70a1dea7a0b}, !- Inlet Port
  ;                                       !- Outlet Port

OS:Connection,
  {ad73c401-36a3-4e19-a35d-c70a1dea7a0b}, !- Handle
  {56600d24-546f-4b7a-9734-083e44942d71}, !- Source Object
  11,                                     !- Outlet Port
  {a3ada473-6360-4968-8636-104ca9875584}, !- Target Object
  2;                                      !- Inlet Port

OS:PortList,
  {9c880e1c-adf2-48f3-b477-07911b2d9982}, !- Handle
  {56600d24-546f-4b7a-9734-083e44942d71}; !- HVAC Component

OS:PortList,
  {42e89fab-bb14-4f7c-a2bf-40119e5f8eb7}, !- Handle
  {56600d24-546f-4b7a-9734-083e44942d71}; !- HVAC Component

OS:PortList,
  {7c070d56-af47-4cbd-bd23-d25d7f58803e}, !- Handle
  {56600d24-546f-4b7a-9734-083e44942d71}; !- HVAC Component

OS:Sizing:Zone,
  {8eaca37b-9d3c-4266-9da3-6fc09365f74e}, !- Handle
  {56600d24-546f-4b7a-9734-083e44942d71}, !- Zone or ZoneList Name
  SupplyAirTemperature,                   !- Zone Cooling Design Supply Air Temperature Input Method
  14,                                     !- Zone Cooling Design Supply Air Temperature {C}
  11.11,                                  !- Zone Cooling Design Supply Air Temperature Difference {deltaC}
  SupplyAirTemperature,                   !- Zone Heating Design Supply Air Temperature Input Method
  40,                                     !- Zone Heating Design Supply Air Temperature {C}
  11.11,                                  !- Zone Heating Design Supply Air Temperature Difference {deltaC}
  0.0085,                                 !- Zone Cooling Design Supply Air Humidity Ratio {kg-H2O/kg-air}
  0.008,                                  !- Zone Heating Design Supply Air Humidity Ratio {kg-H2O/kg-air}
  ,                                       !- Zone Heating Sizing Factor
  ,                                       !- Zone Cooling Sizing Factor
  DesignDay,                              !- Cooling Design Air Flow Method
  ,                                       !- Cooling Design Air Flow Rate {m3/s}
  ,                                       !- Cooling Minimum Air Flow per Zone Floor Area {m3/s-m2}
  ,                                       !- Cooling Minimum Air Flow {m3/s}
  ,                                       !- Cooling Minimum Air Flow Fraction
  DesignDay,                              !- Heating Design Air Flow Method
  ,                                       !- Heating Design Air Flow Rate {m3/s}
  ,                                       !- Heating Maximum Air Flow per Zone Floor Area {m3/s-m2}
  ,                                       !- Heating Maximum Air Flow {m3/s}
  ,                                       !- Heating Maximum Air Flow Fraction
  No,                                     !- Account for Dedicated Outdoor Air System
  NeutralSupplyAir,                       !- Dedicated Outdoor Air System Control Strategy
  autosize,                               !- Dedicated Outdoor Air Low Setpoint Temperature for Design {C}
  autosize,                               !- Dedicated Outdoor Air High Setpoint Temperature for Design {C}
  Sensible Load Only No Latent Load,      !- Zone Load Sizing Method
  HumidityRatioDifference,                !- Zone Latent Cooling Design Supply Air Humidity Ratio Input Method
  ,                                       !- Zone Dehumidification Design Supply Air Humidity Ratio {kgWater/kgDryAir}
  0.005,                                  !- Zone Cooling Design Supply Air Humidity Ratio Difference {kgWater/kgDryAir}
  HumidityRatioDifference,                !- Zone Latent Heating Design Supply Air Humidity Ratio Input Method
  ,                                       !- Zone Humidification Design Supply Air Humidity Ratio {kgWater/kgDryAir}
  0.005,                                  !- Zone Humidification Design Supply Air Humidity Ratio Difference {kgWater/kgDryAir}
  ,                                       !- Zone Humidistat Dehumidification Set Point Schedule Name
  ,                                       !- Zone Humidistat Humidification Set Point Schedule Name
  ,                                       !- Design Zone Air Distribution Effectiveness in Cooling Mode
  ,                                       !- Design Zone Air Distribution Effectiveness in Heating Mode
  ,                                       !- Design Zone Secondary Recirculation Fraction {dimensionless}
  ,                                       !- Design Minimum Zone Ventilation Efficiency {dimensionless}
  Coincident;                             !- Sizing Option

OS:ZoneHVAC:EquipmentList,
  {b9978e47-c2cb-4e58-821c-f7e2ecba5488}, !- Handle
  Zone HVAC Equipment List 2,             !- Name
  {56600d24-546f-4b7a-9734-083e44942d71}; !- Thermal Zone

OS:AdditionalProperties,
  {aaa20a65-0708-4965-99b7-b178934f9757}, !- Handle
  {56600d24-546f-4b7a-9734-083e44942d71}, !- Object Name
  ObjectType,                             !- Feature Name 1
  String,                                 !- Feature Data Type 1
  attic - vented;                         !- Feature Value 1

OS:Space,
  {8b7b27d4-740f-4bf2-b9ed-0ad6f7e11213}, !- Handle
  attic - vented 1,                       !- Name
  ,                                       !- Space Type Name
  ,                                       !- Default Construction Set Name
  ,                                       !- Default Schedule Set Name
  ,                                       !- Direction of Relative North {deg}
  ,                                       !- X Origin {m}
  ,                                       !- Y Origin {m}
  ,                                       !- Z Origin {m}
  ,                                       !- Building Story Name
  {56600d24-546f-4b7a-9734-083e44942d71}, !- Thermal Zone Name
  ,                                       !- Part of Total Floor Area
  ,                                       !- Design Specification Outdoor Air Object Name
  ,                                       !- Building Unit Name
  356.389957095237;                       !- Volume {m3}

OS:Material,
  {f358fb1d-47b3-4b4e-abbf-4831b786760d}, !- Handle
  asphalt or fiberglass shingles,         !- Name
  Rough,                                  !- Roughness
  0.00635,                                !- Thickness {m}
  0.162714,                               !- Conductivity {W/m-K}
  1121.4,                                 !- Density {kg/m3}
  1465.45,                                !- Specific Heat {J/kg-K}
  0.9,                                    !- Thermal Absorptance
  0.85,                                   !- Solar Absorptance