
OS:Version,
  {8fd17aa7-11a4-45ad-bff4-3d8eece2a57c}, !- Handle
  3.9.0;                                  !- Version Identifier

OS:SimulationControl,
  {1d6e8f2e-78db-41cf-9141-3fee4917a3af}, !- Handle
  ,                                       !- Do Zone Sizing Calculation
  ,                                       !- Do System Sizing Calculation
  ,                                       !- Do Plant Sizing Calculation
  No;                                     !- Run Simulation for Sizing Periods

OS:Timestep,
  {b6b1f03f-6cc2-492a-a3e6-117302bbac40}, !- Handle
  1;                                      !- Number of Timesteps per Hour

OS:ShadowCalculation,
  {99770ae8-d247-4a0d-9d4b-b4ff84a47a3c}, !- Handle
  PolygonClipping,                        !- Shading Calculation Method
  ,                                       !- Shading Calculation Update Frequency Method
  20,                                     !- Shading Calculation Update Frequency
  200,                                    !- Maximum Figures in Shadow Overlap Calculations
  ,                                       !- Polygon Clipping Algorithm
  512,                                    !- Pixel Counting Resolution
  ,                                       !- Sky Diffuse Modeling Algorithm
  No,                                     !- Output External Shading Calculation Results
  No,                                     !- Disable Self-Shading Within Shading Zone Groups
  No;                                     !- Disable Self-Shading From Shading Zone Groups to Other Zones

OS:SurfaceConvectionAlgorithm:Outside,
  {d83c0e3a-8be3-4ba9-b0a9-f744ac810c71}, !- Handle
  DOE-2;                                  !- Algorithm

OS:SurfaceConvectionAlgorithm:Inside,
  {540258c1-8ae2-452b-a38f-f925c0696c6d}, !- Handle
  TARP;                                   !- Algorithm

OS:ZoneCapacitanceMultiplier:ResearchSpecial,
  {4244166d-fa74-4c85-8031-d938a1344877}, !- Handle
  7,                                      !- Temperature Capacity Multiplier
  15,                                     !- Humidity Capacity Multiplier
  ;                                       !- Carbon Dioxide Capacity Multiplier

OS:ConvergenceLimits,
  {124a2139-565c-41c4-aa53-7032d8e2324c}, !- Handle
  0;                                      !- Minimum System Timestep {minutes}

OS:RunPeriod,
  {74260a49-ebb2-4844-b505-d5bc3466dbe1}, !- Handle
  Run Period 1,                           !- Name
  1,                                      !- Begin Month
  1,                                      !- Begin Day of Month
  12,                                     !- End Month
  31,                                     !- End Day of Month
  ,                                       !- Use Weather File Holidays and Special Days
  ,                                       !- Use Weather File Daylight Saving Period
  ,                                       !- Apply Weekend Holiday Rule
  ,                                       !- Use Weather File Rain Indicators
  ,                                       !- Use Weather File Snow Indicators
  ;                                       !- Number of Times Runperiod to be Repeated

OS:PerformancePrecisionTradeoffs,
  {fd54493e-6073-491b-b8c8-3828ed463abf}, !- Handle
  ,                                       !- Use Coil Direct Solutions
  CarrollMRT;                             !- Zone Radiant Exchange Algorithm

OS:WeatherFile,
  {df06bf23-de16-44f4-b8bb-44f0e4d6ea8e}, !- Handle
  Buffalo Niagara Intl Ap,                !- City
  NY,                                     !- State Province Region
  USA,                                    !- Country
  TMY3,                                   !- Data Source
  725280,                                 !- WMO Number
  42.93,                                  !- Latitude {deg}
  -78.73,                                 !- Longitude {deg}
  -5,                                     !- Time Zone {hr}
  215,                                    !- Elevation {m}
  /Users/nmoore/github/urbanopt-example-geojson-project/example_project/weather/USA_NY_Buffalo-Greater.Buffalo.Intl.AP.725280_TMY3.epw, !- Url
  6B50E0FF,                               !- Checksum
  ,                                       !- Start Date Actual Year
  Sunday;                                 !- Start Day of Week

OS:YearDescription,
  {a2462f5b-4504-47e4-a9a2-97416041d25f}, !- Handle
  2007,                                   !- Calendar Year
  ,                                       !- Day of Week for Start Day
  ;                                       !- Is Leap Year

OS:Site,
  {8b69edc1-93cc-4252-a03f-23af639fae92}, !- Handle
  Buffalo Niagara Intl Ap_NY,             !- Name
  42.93,                                  !- Latitude {deg}
  -78.73,                                 !- Longitude {deg}
  -5,                                     !- Time Zone {hr}
  215,                                    !- Elevation {m}
  Suburbs,                                !- Terrain
  Yes;                                    !- Keep Site Location Information

OS:RunPeriodControl:DaylightSavingTime,
  {3c6f8df3-4443-4ed9-bb17-39acb196a7e1}, !- Handle
  Mar 12,                                 !- Start Date
  Nov 5;                                  !- End Date

OS:Site:GroundTemperature:Shallow,
  {0fc641d2-d067-4fe6-bd97-b47688c258a5}, !- Handle
  4.30207395723828,                       !- January Surface Ground Temperature {C}
  2.29327249652502,                       !- February Surface Ground Temperature {C}
  2.13240047156047,                       !- March Surface Ground Temperature {C}
  3.08567940719286,                       !- April Surface Ground Temperature {C}
  6.91256312497526,                       !- May Surface Ground Temperature {C}
  10.7216195949507,                       !- June Surface Ground Temperature {C}
  14.0238679822574,                       !- July Surface Ground Temperature {C}
  16.1157611184724,                       !- August Surface Ground Temperature {C}
  16.2934789303462,                       !- September Surface Ground Temperature {C}
  14.5920754632847,                       !- October Surface Ground Temperature {C}
  11.374036348653,                        !- November Surface Ground Temperature {C}
  7.68182621661674;                       !- December Surface Ground Temperature {C}

OS:ThermalZone,
  {12b253d3-00a6-4ebb-8c4e-11dbbb040943}, !- Handle
  conditioned space,                      !- Name
  1,                                      !- Multiplier
  ,                                       !- Ceiling Height {m}
  692.06373070848,                        !- Volume {m3}
  ,                                       !- Floor Area {m2}
  ,                                       !- Zone Inside Convection Algorithm
  ,                                       !- Zone Outside Convection Algorithm
  ,                                       !- Zone Conditioning Equipment List Name
  {6d539169-6e66-49e5-a455-510dba5d13fa}, !- Zone Air Inlet Port List
  {3e04e8a2-8e8d-4c2f-a7c7-6d06913b1a9e}, !- Zone Air Exhaust Port List
  {c6ce5ba8-92cf-4af9-acf8-897042aa7b79}, !- Zone Air Node Name
  {4b7e28cc-ebe7-46c3-bac4-7d9aebaf522f}, !- Zone Return Air Port List
  ,                                       !- Primary Daylighting Control Name
  ,                                       !- Fraction of Zone Controlled by Primary Daylighting Control
  ,                                       !- Secondary Daylighting Control Name
  ,                                       !- Fraction of Zone Controlled by Secondary Daylighting Control
  ,                                       !- Illuminance Map Name
  ,                                       !- Group Rendering Name
  {b6ecebe4-0d6a-4b93-bb87-8b50cb530f24}, !- Thermostat Name
  No;                                     !- Use Ideal Air Loads

OS:Node,
  {0b9dbcb7-0be9-40af-914f-f530e309dba5}, !- Handle
  Node 1,                                 !- Name
  {c6ce5ba8-92cf-4af9-acf8-897042aa7b79}, !- Inlet Port
  ;                                       !- Outlet Port

OS:Connection,
  {c6ce5ba8-92cf-4af9-acf8-897042aa7b79}, !- Handle
  {12b253d3-00a6-4ebb-8c4e-11dbbb040943}, !- Source Object
  11,                                     !- Outlet Port
  {0b9dbcb7-0be9-40af-914f-f530e309dba5}, !- Target Object
  2;                                      !- Inlet Port

OS:PortList,
  {6d539169-6e66-49e5-a455-510dba5d13fa}, !- Handle
  {12b253d3-00a6-4ebb-8c4e-11dbbb040943}, !- HVAC Component
  {3f80f8c4-f30d-45a9-8065-afb9f935c2be}; !- Port 1

OS:PortList,
  {3e04e8a2-8e8d-4c2f-a7c7-6d06913b1a9e}, !- Handle
  {12b253d3-00a6-4ebb-8c4e-11dbbb040943}; !- HVAC Component

OS:PortList,
  {4b7e28cc-ebe7-46c3-bac4-7d9aebaf522f}, !- Handle
  {12b253d3-00a6-4ebb-8c4e-11dbbb040943}, !- HVAC Component
  {98266a71-e479-4cc1-abe8-65b4cd8d4df1}; !- Port 1

OS:Sizing:Zone,
  {afc93ed6-c189-4d2e-b110-95e9023c1b18}, !- Handle
  {12b253d3-00a6-4ebb-8c4e-11dbbb040943}, !- Zone or ZoneList Name
  SupplyAirTemperature,                   !- Zone Cooling Design Supply Air Temperature Input Method
  14,                                     !- Zone Cooling Design Supply Air Temperature {C}
  11.11,                                  !- Zone Cooling Design Supply Air Temperature Difference {deltaC}
  SupplyAirTemperature,                   !- Zone Heating Design Supply Air Temperature Input Method
  40,                                     !- Zone Heating Design Supply Air Temperature {C}
  11.11,                                  !- Zone Heating Design Supply Air Temperature Difference {deltaC}
  0.0085,                                 !- Zone Cooling Design Supply Air Humidity Ratio {kg-H2O/kg-air}
  0.008,                                  !- Zone Heating Design Supply Air Humidity Ratio {kg-H2O/kg-air}
  ,                                       !- Zone Heating Sizing Factor
  ,                                       !- Zone Cooling Sizing Factor
  DesignDay,                              !- Cooling Design Air Flow Method
  ,                                       !- Cooling Design Air Flow Rate {m3/s}
  ,                                       !- Cooling Minimum Air Flow per Zone Floor Area {m3/s-m2}
  ,                                       !- Cooling Minimum Air Flow {m3/s}
  ,                                       !- Cooling Minimum Air Flow Fraction
  DesignDay,                              !- Heating Design Air Flow Method
  ,                                       !- Heating Design Air Flow Rate {m3/s}
  ,                                       !- Heating Maximum Air Flow per Zone Floor Area {m3/s-m2}
  ,                                       !- Heating Maximum Air Flow {m3/s}
  ,                                       !- Heating Maximum Air Flow Fraction
  No,                                     !- Account for Dedicated Outdoor Air System
  NeutralSupplyAir,                       !- Dedicated Outdoor Air System Control Strategy
  autosize,                               !- Dedicated Outdoor Air Low Setpoint Temperature for Design {C}
  autosize,                               !- Dedicated Outdoor Air High Setpoint Temperature for Design {C}
  Sensible Load Only No Latent Load,      !- Zone Load Sizing Method
  HumidityRatioDifference,                !- Zone Latent Cooling Design Supply Air Humidity Ratio Input Method
  ,                                       !- Zone Dehumidification Design Supply Air Humidity Ratio {kgWater/kgDryAir}
  0.005,                                  !- Zone Cooling Design Supply Air Humidity Ratio Difference {kgWater/kgDryAir}
  HumidityRatioDifference,                !- Zone Latent Heating Design Supply Air Humidity Ratio Input Method
  ,                                       !- Zone Humidification Design Supply Air Humidity Ratio {kgWater/kgDryAir}
  0.005,                                  !- Zone Humidification Design Supply Air Humidity Ratio Difference {kgWater/kgDryAir}
  ,                                       !- Zone Humidistat Dehumidification Set Point Schedule Name
  ,                                       !- Zone Humidistat Humidification Set Point Schedule Name
  ,                                       !- Design Zone Air Distribution Effectiveness in Cooling Mode
  ,                                       !- Design Zone Air Distribution Effectiveness in Heating Mode
  ,                                       !- Design Zone Secondary Recirculation Fraction {dimensionless}
  ,                                       !- Design Minimum Zone Ventilation Efficiency {dimensionless}
  Coincident;                             !- Sizing Option

OS:ZoneHVAC:EquipmentList,
  {5f093990-7fdc-47fc-aeb0-622b34d74dea}, !- Handle
  Zone HVAC Equipment List 1,             !- Name
  {12b253d3-00a6-4ebb-8c4e-11dbbb040943}, !- Thermal Zone
  ,                                       !- Load Distribution Scheme
  {33e80f09-1a30-4b6d-941a-d6e0ab6f397e}, !- Zone Equipment 1
  1,                                      !- Zone Equipment Cooling Sequence 1
  1,                                      !- Zone Equipment Heating or No-Load Sequence 1
  {f3500fc2-a150-467a-85c2-cda30d046b7f}, !- Zone Equipment Sequential Cooling Fraction Schedule Name 1
  {c17c6e40-0c67-43e9-8c46-fd93fb0b35a9}; !- Zone Equipment Sequential Heating Fraction Schedule Name 1

OS:AdditionalProperties,
  {06c95486-a882-43d7-aeea-9a9fd273627b}, !- Handle
  {12b253d3-00a6-4ebb-8c4e-11dbbb040943}, !- Object Name
  ObjectType,                             !- Feature Name 1
  String,                                 !- Feature Data Type 1
  conditioned space;                      !- Feature Value 1

OS:Space,
  {dce6b4ab-0415-4412-8dc3-0d30f9ae214f}, !- Handle
  conditioned space 1,                    !- Name
  ,                                       !- Space Type Name
  ,                                       !- Default Construction Set Name
  ,                                       !- Default Schedule Set Name
  ,                                       !- Direction of Relative North {deg}
  ,                                       !- X Origin {m}
  ,                                       !- Y Origin {m}
  ,                                       !- Z Origin {m}
  ,                                       !- Building Story Name
  {12b253d3-00a6-4ebb-8c4e-11dbbb040943}, !- Thermal Zone Name
  ,                                       !- Part of Total Floor Area
  ,                                       !- Design Specification Outdoor Air Object Name
  ,                                       !- Building Unit Name
  692.06373070848;                        !- Volume {m3}

OS:Schedule:Ruleset,
  {2f6064dc-a917-4cd3-96b4-91cb70004db0}, !- Handle
  heating setpoint,                       !- Name
  {bc967ce2-5f6a-4319-b51e-df93af205021}, !- Schedule Type Limits Name
  {903374a0-7d7a-44d7-952a-08481bcaee75}; !- Default Day Schedule Name

OS:Schedule:Day,
  {903374a0-7d7a-44d7-952a-08481bcaee75}, !- Handle
  heating setpoint default day,           !- Name
  {bc967ce2-5f6a-4319-b51e-df93af205021}, !- Schedule Type Limits Name
  ,                                       !- Interpolate to Timestep
  24,                                     !- Hour 1
  0,                                      !- Minute 1
  0;                                      !- Value Until Time 1

OS:Schedule:Rule,
  {b280133d-b93c-4573-9959-ae60f1665aad}, !- Handle
  heating setpoint allday rule,           !- Name
  {2f6064dc-a917-4cd3-96b4-91cb70004db0}, !- Schedule Ruleset Name
  0,                                      !- Rule Order
  {fbed5b01-880d-4c95-aaf4-8cd3b0b8531a}, !- Day Schedule Name
  Yes,                                    !- Apply Sunday
  Yes,                                    !- Apply Monday
  Yes,                                    !- Apply Tuesday
  Yes,                                    !- Apply Wednesday
  Yes,                                    !- Apply Thursday
  Yes,                                    !- Apply Friday
  Yes,                                    !- Apply Saturday
  DateRange,                              !- Date Specification Type
  1,                                      !- Start Month
  1,                                      !- Start Day
  12,                                     !- End Month
  31;                                     !- End Day

OS:Schedule:Day,
  {fbed5b01-880d-4c95-aaf4-8cd3b0b8531a}, !- Handle
  heating setpoint day,                   !- Name
  {bc967ce2-5f6a-4319-b51e-df93af205021}, !- Schedule Type Limits Name
  ,                                       !- Interpolate to Timestep
  24,                                     !- Hour 1
  0,                                      !- Minute 1
  20;                                     !- Value Until Time 1

OS:Schedule:Ruleset,
  {3f4ba820-4989-4c4e-aeef-6095a8800215}, !- Handle
  cooling setpoint,                       !- Name
  {bc967ce2-5f6a-4319-b51e-df93af205021}, !- Schedule Type Limits Name
  {cb7e8b35-eb44-438a-af04-33bb3a19bfe7}; !- Default Day Schedule Name

OS:Schedule:Day,
  {cb7e8b35-eb44-438a-af04-33bb3a19bfe7}, !- Handle
  cooling setpoint default day,           !- Name
  {bc967ce2-5f6a-4319-b51e-df93af205021}, !- Schedule Type Limits Name
  ,                                       !- Interpolate to Timestep
  24,                                     !- Hour 1
  0,                                      !- Minute 1
  0;                                      !- Value Until Time 1

OS:Schedule:Rule,
  {bd227cdb-3937-4e9f-b861-2d340e3210ce}, !- Handle
  cooling setpoint allday rule,           !- Name
  {3f4ba820-4989-4c4e-aeef-6095a8800215}, !- Schedule Ruleset Name
  0,                                      !- Rule Order
  {4fcdc6dc-f102-479a-8f14-84127cbe1265}, !- Day Schedule Name
  Yes,                                    !- Apply Sunday
  Yes,                                    !- Apply Monday
  Yes,                                    !- Apply Tuesday
  Yes,                                    !- Apply Wednesday
  Yes,                                    !- Apply Thursday
  Yes,                                    !- Apply Friday
  Yes,                                    !- Apply Saturday
  DateRange,                              !- Date Specification Type
  1,                                      !- Start Month
  1,                                      !- Start Day
  12,                                     !- End Month
  31;                                     !- End Day

OS:Schedule:Day,
  {4fcdc6dc-f102-479a-8f14-84127cbe1265}, !- Handle
  cooling setpoint day,                   !- Name
  {bc967ce2-5f6a-4319-b51e-df93af205021}, !- Schedule Type Limits Name
  ,                                       !- Interpolate to Timestep
  24,                                     !- Hour 1
  0,                                      !- Minute 1
  25.5555555555556;                       !- Value Until Time 1

OS:ThermostatSetpoint:DualSetpoint,
  {b6ecebe4-0d6a-4b93-bb87-8b50cb530f24}, !- Handle
  conditioned space temperature setpoint, !- Name
  {2f6064dc-a917-4cd3-96b4-91cb70004db0}, !- Heating Setpoint Temperature Schedule Name
  {3f4ba820-4989-4c4e-aeef-6095a8800215}, !- Cooling Setpoint Temperature Schedule Name
  0;                                      !- Temperature Difference Between Cutout And Setpoint {deltaC}

OS:ScheduleTypeLimits,
  {bc967ce2-5f6a-4319-b51e-df93af205021}, !- Handle
  Temperature,                            !- Name
  ,                                       !- Lower Limit Value
  ,                                       !- Upper Limit Value
  Continuous,                             !- Numeric Type
  Temperature;                            !- Unit Type

OS:Surface,
  {f92da900-8ff2-4731-8598-8821a2d2f88c}, !- Handle
  Roof1,                                  !- Name
  RoofCeiling,                            !- Surface Type
  {d31beff0-4bbe-4a77-90a8-98004d3b5224}, !- Construction Name
  {117bd4eb-6769-411d-bdf0-1b01fa91c26d}, !- Space Name
  Outdoors,                               !- Outside Boundary Condition
  ,                                       !- Outside Boundary Condition Object
  SunExposed,                             !- Sun Exposure
  WindExposed,                            !- Wind Exposure
  ,                                       !- View Factor to Ground
  ,                                       !- Number of Vertices
  9.8030170292795, 22.3990406761293, 3.048, !- X,Y,Z Vertex 1 {m}
  9.8030170292795, 11.1328146279089, 8.6811130241102, !- X,Y,Z Vertex 2 {m}
  22.3990406761293, 11.1328146279089, 8.6811130241102, !- X,Y,Z Vertex 3 {m}
  22.3990406761293, 22.3990406761293, 3.048; !- X,Y,Z Vertex 4 {m}

OS:AdditionalProperties,
  {835d3346-8c19-4f58-b5b4-e7a5ecddf61a}, !- Handle
  {f92da900-8ff2-4731-8598-8821a2d2f88c}, !- Object Name
  Length,                                 !- Feature Name 1
  Double,                                 !- Feature Data Type 1
  41.325536899113608,                     !- Feature Value 1
  Width,                                  !- Feature Name 2
  Double,                                 !- Feature Data Type 2
  41.325536899113601,                     !- Feature Value 2
  Azimuth,                                !- Feature Name 3
  Integer,                                !- Feature Data Type 3
  0,                                      !- Feature Value 3
  Tilt,                                   !- Feature Name 4
  Double,                                 !- Feature Data Type 4
  0.5,                                    !- Feature Value 4
  SurfaceType,                            !- Feature Name 5
  String,                                 !- Feature Data Type 5
  Roof;                                   !- Feature Value 5

OS:ThermalZone,
  {a8745277-e191-4c8e-9525-cc98eb23d750}, !- Handle
  attic - vented,                         !- Name
  1,                                      !- Multiplier
  ,                                       !- Ceiling Height {m}
  356.389957095237,                       !- Volume {m3}
  ,                                       !- Floor Area {m2}
  ,                                       !- Zone Inside Convection Algorithm
  ,                                       !- Zone Outside Convection Algorithm
  ,                                       !- Zone Conditioning Equipment List Name
  {3cdba910-7f17-41cd-894f-ba4272a67b39}, !- Zone Air Inlet Port List
  {e05f6c0b-1338-4cb9-9140-bb111a9506c2}, !- Zone Air Exhaust Port List
  {3f96abe9-376e-4c65-b01c-d0d3298b8ad5}, !- Zone Air Node Name
  {267659a1-964f-4b2d-8ebc-9bdcab9d9319}, !- Zone Return Air Port List
  ,                                       !- Primary Daylighting Control Name
  ,                                       !- Fraction of Zone Controlled by Primary Daylighting Control
  ,                                       !- Secondary Daylighting Control Name
  ,                                       !- Fraction of Zone Controlled by Secondary Daylighting Control
  ,                                       !- Illuminance Map Name
  ,                                       !- Group Rendering Name
  ,                                       !- Thermostat Name
  No;                                     !- Use Ideal Air Loads

OS:Node,
  {8a9d1e2b-fe84-4237-ac78-46ebf1ed04fa}, !- Handle
  Node 2,                                 !- Name
  {3f96abe9-376e-4c65-b01c-d0d3298b8ad5}, !- Inlet Port
  ;                                       !- Outlet Port

OS:Connection,
  {3f96abe9-376e-4c65-b01c-d0d3298b8ad5}, !- Handle
  {a8745277-e191-4c8e-9525-cc98eb23d750}, !- Source Object
  11,                                     !- Outlet Port
  {8a9d1e2b-fe84-4237-ac78-46ebf1ed04fa}, !- Target Object
  2;                                      !- Inlet Port

OS:PortList,
  {3cdba910-7f17-41cd-894f-ba4272a67b39}, !- Handle
  {a8745277-e191-4c8e-9525-cc98eb23d750}; !- HVAC Component

OS:PortList,
  {e05f6c0b-1338-4cb9-9140-bb111a9506c2}, !- Handle
  {a8745277-e191-4c8e-9525-cc98eb23d750}; !- HVAC Component

OS:PortList,
  {267659a1-964f-4b2d-8ebc-9bdcab9d9319}, !- Handle
  {a8745277-e191-4c8e-9525-cc98eb23d750}; !- HVAC Component

OS:Sizing:Zone,
  {948c95c7-9a28-4448-81e1-bd2eff74a055}, !- Handle
  {a8745277-e191-4c8e-9525-cc98eb23d750}, !- Zone or ZoneList Name
  SupplyAirTemperature,                   !- Zone Cooling Design Supply Air Temperature Input Method
  14,                                     !- Zone Cooling Design Supply Air Temperature {C}
  11.11,                                  !- Zone Cooling Design Supply Air Temperature Difference {deltaC}
  SupplyAirTemperature,                   !- Zone Heating Design Supply Air Temperature Input Method
  40,                                     !- Zone Heating Design Supply Air Temperature {C}
  11.11,                                  !- Zone Heating Design Supply Air Temperature Difference {deltaC}
  0.0085,                                 !- Zone Cooling Design Supply Air Humidity Ratio {kg-H2O/kg-air}
  0.008,                                  !- Zone Heating Design Supply Air Humidity Ratio {kg-H2O/kg-air}
  ,                                       !- Zone Heating Sizing Factor
  ,                                       !- Zone Cooling Sizing Factor
  DesignDay,                              !- Cooling Design Air Flow Method
  ,                                       !- Cooling Design Air Flow Rate {m3/s}
  ,                                       !- Cooling Minimum Air Flow per Zone Floor Area {m3/s-m2}
  ,                                       !- Cooling Minimum Air Flow {m3/s}
  ,                                       !- Cooling Minimum Air Flow Fraction
  DesignDay,                              !- Heating Design Air Flow Method
  ,                                       !- Heating Design Air Flow Rate {m3/s}
  ,                                       !- Heating Maximum Air Flow per Zone Floor Area {m3/s-m2}
  ,                                       !- Heating Maximum Air Flow {m3/s}
  ,                                       !- Heating Maximum Air Flow Fraction
  No,                                     !- Account for Dedicated Outdoor Air System
  NeutralSupplyAir,                       !- Dedicated Outdoor Air System Control Strategy
  autosize,                               !- Dedicated Outdoor Air Low Setpoint Temperature for Design {C}
  autosize,                               !- Dedicated Outdoor Air High Setpoint Temperature for Design {C}
  Sensible Load Only No Latent Load,      !- Zone Load Sizing Method
  HumidityRatioDifference,                !- Zone Latent Cooling Design Supply Air Humidity Ratio Input Method
  ,                                       !- Zone Dehumidification Design Supply Air Humidity Ratio {kgWater/kgDryAir}
  0.005,                                  !- Zone Cooling Design Supply Air Humidity Ratio Difference {kgWater/kgDryAir}
  HumidityRatioDifference,                !- Zone Latent Heating Design Supply Air Humidity Ratio Input Method
  ,                                       !- Zone Humidification Design Supply Air Humidity Ratio {kgWater/kgDryAir}
  0.005,                                  !- Zone Humidification Design Supply Air Humidity Ratio Difference {kgWater/kgDryAir}
  ,                                       !- Zone Humidistat Dehumidification Set Point Schedule Name
  ,                                       !- Zone Humidistat Humidification Set Point Schedule Name
  ,                                       !- Design Zone Air Distribution Effectiveness in Cooling Mode
  ,                                       !- Design Zone Air Distribution Effectiveness in Heating Mode
  ,                                       !- Design Zone Secondary Recirculation Fraction {dimensionless}
  ,                                       !- Design Minimum Zone Ventilation Efficiency {dimensionless}
  Coincident;                             !- Sizing Option

OS:ZoneHVAC:EquipmentList,
  {d8a4f089-ca39-494a-8397-07c95a9a7e44}, !- Handle
  Zone HVAC Equipment List 2,             !- Name
  {a8745277-e191-4c8e-9525-cc98eb23d750}; !- Thermal Zone

OS:AdditionalProperties,
  {25276c57-5af2-497c-b6a0-92f7b5104af0}, !- Handle
  {a8745277-e191-4c8e-9525-cc98eb23d750}, !- Object Name
  ObjectType,                             !- Feature Name 1
  String,                                 !- Feature Data Type 1
  attic - vented;                         !- Feature Value 1

OS:Space,
  {117bd4eb-6769-411d-bdf0-1b01fa91c26d}, !- Handle
  attic - vented 1,                       !- Name
  ,                                       !- Space Type Name
  ,                                       !- Default Construction Set Name
  ,                                       !- Default Schedule Set Name
  ,                                       !- Direction of Relative North {deg}
  ,                                       !- X Origin {m}
  ,                                       !- Y Origin {m}
  ,                                       !- Z Origin {m}
  ,                                       !- Building Story Name
  {a8745277-e191-4c8e-9525-cc98eb23d750}, !- Thermal Zone Name
  ,                                       !- Part of Total Floor Area
  ,                                       !- Design Specification Outdoor Air Object Name
  ,                                       !- Building Unit Name
  356.389957095237;                       !- Volume {m3}

OS:Material,
  {a01fc5c3-f70b-4f46-9985-583f5a1552d7}, !- Handle
  asphalt or fiberglass shingles,         !- Name
  Rough,                                  !- Roughness
  0.00635,                                !- Thickness {m}
  0.162714,                               !- Conductivity {W/m-K}
  1121.4,                                 !- Density {kg/m3}
  1465.45,                                !- Specific Heat {J/kg-K}
  0.9,                                    !- Thermal Absorptance
  0.85,                                   !- Solar Absorptance