
OS:Version,
  {35e1e3ad-4327-47fe-b1ff-3d19ec5bb2d8}, !- Handle
  3.10.0;                                 !- Version Identifier

OS:SimulationControl,
  {18674a1d-ec96-4682-a907-5ef4e59e2a1d}, !- Handle
  ,                                       !- Do Zone Sizing Calculation
  ,                                       !- Do System Sizing Calculation
  ,                                       !- Do Plant Sizing Calculation
  No;                                     !- Run Simulation for Sizing Periods

OS:Timestep,
  {6ccc6131-4bde-4a45-8d0e-f760c5e26988}, !- Handle
  1;                                      !- Number of Timesteps per Hour

OS:ShadowCalculation,
  {df01b5b5-d7a3-430b-99a5-85fd5b45cdb0}, !- Handle
  PolygonClipping,                        !- Shading Calculation Method
  ,                                       !- Shading Calculation Update Frequency Method
  20,                                     !- Shading Calculation Update Frequency
  200,                                    !- Maximum Figures in Shadow Overlap Calculations
  ,                                       !- Polygon Clipping Algorithm
  512,                                    !- Pixel Counting Resolution
  ,                                       !- Sky Diffuse Modeling Algorithm
  No,                                     !- Output External Shading Calculation Results
  No,                                     !- Disable Self-Shading Within Shading Zone Groups
  No;                                     !- Disable Self-Shading From Shading Zone Groups to Other Zones

OS:SurfaceConvectionAlgorithm:Outside,
  {9b65aa8c-2aa4-4501-815a-132dadf09ce3}, !- Handle
  DOE-2;                                  !- Algorithm

OS:SurfaceConvectionAlgorithm:Inside,
  {a619f85b-e876-42ce-97ad-01f32cb348bb}, !- Handle
  TARP;                                   !- Algorithm

OS:ZoneCapacitanceMultiplier:ResearchSpecial,
  {bd19458b-f261-43f2-bc9f-c72975b047b7}, !- Handle
  7,                                      !- Temperature Capacity Multiplier
  15,                                     !- Humidity Capacity Multiplier
  ;                                       !- Carbon Dioxide Capacity Multiplier

OS:ConvergenceLimits,
  {7432a135-f9f2-478f-952e-e5ad23748044}, !- Handle
  0;                                      !- Minimum System Timestep {minutes}

OS:RunPeriod,
  {bfbeadb4-1d17-4040-af5e-6b8c66b32662}, !- Handle
  Run Period 1,                           !- Name
  1,                                      !- Begin Month
  1,                                      !- Begin Day of Month
  12,                                     !- End Month
  31,                                     !- End Day of Month
  ,                                       !- Use Weather File Holidays and Special Days
  ,                                       !- Use Weather File Daylight Saving Period
  ,                                       !- Apply Weekend Holiday Rule
  ,                                       !- Use Weather File Rain Indicators
  ,                                       !- Use Weather File Snow Indicators
  ;                                       !- Number of Times Runperiod to be Repeated

OS:PerformancePrecisionTradeoffs,
  {aca0c7e8-6fa6-4782-83a5-bac8d5e6eab5}, !- Handle
  ,                                       !- Use Coil Direct Solutions
  CarrollMRT;                             !- Zone Radiant Exchange Algorithm

OS:WeatherFile,
  {e8bd5446-c2de-47ad-9b2a-53b24a506278}, !- Handle
  Buffalo Niagara Intl Ap,                !- City
  NY,                                     !- State Province Region
  USA,                                    !- Country
  TMY3,                                   !- Data Source
  725280,                                 !- WMO Number
  42.93,                                  !- Latitude {deg}
  -78.73,                                 !- Longitude {deg}
  -5,                                     !- Time Zone {hr}
  215,                                    !- Elevation {m}
  /Users/nmoore/github/urbanopt-example-geojson-project/example_project/weather/USA_NY_Buffalo-Greater.Buffalo.Intl.AP.725280_TMY3.epw, !- Url
  6B50E0FF,                               !- Checksum
  ,                                       !- Start Date Actual Year
  Sunday;                                 !- Start Day of Week

OS:YearDescription,
  {01d3b412-7cef-41f0-ab5e-f60973ac7e0c}, !- Handle
  2007,                                   !- Calendar Year
  ,                                       !- Day of Week for Start Day
  ;                                       !- Is Leap Year

OS:Site,
  {adbf9710-25ab-4a3a-9b3d-212625aeb0c2}, !- Handle
  Buffalo Niagara Intl Ap_NY,             !- Name
  42.93,                                  !- Latitude {deg}
  -78.73,                                 !- Longitude {deg}
  -5,                                     !- Time Zone {hr}
  215,                                    !- Elevation {m}
  Suburbs,                                !- Terrain
  Yes;                                    !- Keep Site Location Information

OS:RunPeriodControl:DaylightSavingTime,
  {23880454-a06b-4ce4-a687-e39c655cc22e}, !- Handle
  Mar 12,                                 !- Start Date
  Nov 5;                                  !- End Date

OS:Site:GroundTemperature:Shallow,
  {ecbadee8-eade-4a10-b8c4-253bae52461b}, !- Handle
  4.30207395723828,                       !- January Surface Ground Temperature {C}
  2.29327249652502,                       !- February Surface Ground Temperature {C}
  2.13240047156047,                       !- March Surface Ground Temperature {C}
  3.08567940719286,                       !- April Surface Ground Temperature {C}
  6.91256312497526,                       !- May Surface Ground Temperature {C}
  10.7216195949507,                       !- June Surface Ground Temperature {C}
  14.0238679822574,                       !- July Surface Ground Temperature {C}
  16.1157611184724,                       !- August Surface Ground Temperature {C}
  16.2934789303462,                       !- September Surface Ground Temperature {C}
  14.5920754632847,                       !- October Surface Ground Temperature {C}
  11.374036348653,                        !- November Surface Ground Temperature {C}
  7.68182621661674;                       !- December Surface Ground Temperature {C}

OS:ThermalZone,
  {5be07037-30ed-4d4f-8eed-c4575aaf8510}, !- Handle
  conditioned space,                      !- Name
  1,                                      !- Multiplier
  ,                                       !- Ceiling Height {m}
  692.06373070848,                        !- Volume {m3}
  ,                                       !- Floor Area {m2}
  ,                                       !- Zone Inside Convection Algorithm
  ,                                       !- Zone Outside Convection Algorithm
  ,                                       !- Zone Conditioning Equipment List Name
  {b962dabe-4b7a-4134-831d-56623b71edc6}, !- Zone Air Inlet Port List
  {95280ac4-0108-4b1d-9122-ca1296a5ae9a}, !- Zone Air Exhaust Port List
  {65ec52d0-ddce-4a77-a9e1-e8201d9ac302}, !- Zone Air Node Name
  {0746dc33-7477-4a15-8b4f-d0f0e029fc98}, !- Zone Return Air Port List
  ,                                       !- Primary Daylighting Control Name
  ,                                       !- Fraction of Zone Controlled by Primary Daylighting Control
  ,                                       !- Secondary Daylighting Control Name
  ,                                       !- Fraction of Zone Controlled by Secondary Daylighting Control
  ,                                       !- Illuminance Map Name
  ,                                       !- Group Rendering Name
  {6fa0259b-8236-4857-9614-80b7d2cf073f}, !- Thermostat Name
  No;                                     !- Use Ideal Air Loads

OS:Node,
  {e7a24da1-9fad-4594-9978-ecfe0cd60be2}, !- Handle
  Node 1,                                 !- Name
  {65ec52d0-ddce-4a77-a9e1-e8201d9ac302}, !- Inlet Port
  ;                                       !- Outlet Port

OS:Connection,
  {65ec52d0-ddce-4a77-a9e1-e8201d9ac302}, !- Handle
  {5be07037-30ed-4d4f-8eed-c4575aaf8510}, !- Source Object
  11,                                     !- Outlet Port
  {e7a24da1-9fad-4594-9978-ecfe0cd60be2}, !- Target Object
  2;                                      !- Inlet Port

OS:PortList,
  {b962dabe-4b7a-4134-831d-56623b71edc6}, !- Handle
  {5be07037-30ed-4d4f-8eed-c4575aaf8510}, !- HVAC Component
  {795985fe-585b-43fc-a45b-c3b6969d6da1}; !- Port 1

OS:PortList,
  {95280ac4-0108-4b1d-9122-ca1296a5ae9a}, !- Handle
  {5be07037-30ed-4d4f-8eed-c4575aaf8510}; !- HVAC Component

OS:PortList,
  {0746dc33-7477-4a15-8b4f-d0f0e029fc98}, !- Handle
  {5be07037-30ed-4d4f-8eed-c4575aaf8510}, !- HVAC Component
  {39e4eb52-9313-45e3-9d56-166bac8bb9c9}; !- Port 1

OS:Sizing:Zone,
  {0f5f0358-c876-4bf5-99e2-bfd86c4b9dac}, !- Handle
  {5be07037-30ed-4d4f-8eed-c4575aaf8510}, !- Zone or ZoneList Name
  SupplyAirTemperature,                   !- Zone Cooling Design Supply Air Temperature Input Method
  14,                                     !- Zone Cooling Design Supply Air Temperature {C}
  11.11,                                  !- Zone Cooling Design Supply Air Temperature Difference {deltaC}
  SupplyAirTemperature,                   !- Zone Heating Design Supply Air Temperature Input Method
  40,                                     !- Zone Heating Design Supply Air Temperature {C}
  11.11,                                  !- Zone Heating Design Supply Air Temperature Difference {deltaC}
  0.0085,                                 !- Zone Cooling Design Supply Air Humidity Ratio {kg-H2O/kg-air}
  0.008,                                  !- Zone Heating Design Supply Air Humidity Ratio {kg-H2O/kg-air}
  ,                                       !- Zone Heating Sizing Factor
  ,                                       !- Zone Cooling Sizing Factor
  DesignDay,                              !- Cooling Design Air Flow Method
  ,                                       !- Cooling Design Air Flow Rate {m3/s}
  ,                                       !- Cooling Minimum Air Flow per Zone Floor Area {m3/s-m2}
  ,                                       !- Cooling Minimum Air Flow {m3/s}
  ,                                       !- Cooling Minimum Air Flow Fraction
  DesignDay,                              !- Heating Design Air Flow Method
  ,                                       !- Heating Design Air Flow Rate {m3/s}
  ,                                       !- Heating Maximum Air Flow per Zone Floor Area {m3/s-m2}
  ,                                       !- Heating Maximum Air Flow {m3/s}
  ,                                       !- Heating Maximum Air Flow Fraction
  No,                                     !- Account for Dedicated Outdoor Air System
  NeutralSupplyAir,                       !- Dedicated Outdoor Air System Control Strategy
  autosize,                               !- Dedicated Outdoor Air Low Setpoint Temperature for Design {C}
  autosize,                               !- Dedicated Outdoor Air High Setpoint Temperature for Design {C}
  Sensible Load Only No Latent Load,      !- Zone Load Sizing Method
  HumidityRatioDifference,                !- Zone Latent Cooling Design Supply Air Humidity Ratio Input Method
  ,                                       !- Zone Dehumidification Design Supply Air Humidity Ratio {kgWater/kgDryAir}
  0.005,                                  !- Zone Cooling Design Supply Air Humidity Ratio Difference {kgWater/kgDryAir}
  HumidityRatioDifference,                !- Zone Latent Heating Design Supply Air Humidity Ratio Input Method
  ,                                       !- Zone Humidification Design Supply Air Humidity Ratio {kgWater/kgDryAir}
  0.005,                                  !- Zone Humidification Design Supply Air Humidity Ratio Difference {kgWater/kgDryAir}
  ,                                       !- Zone Humidistat Dehumidification Set Point Schedule Name
  ,                                       !- Zone Humidistat Humidification Set Point Schedule Name
  ,                                       !- Design Zone Air Distribution Effectiveness in Cooling Mode
  ,                                       !- Design Zone Air Distribution Effectiveness in Heating Mode
  ,                                       !- Design Zone Secondary Recirculation Fraction {dimensionless}
  ,                                       !- Design Minimum Zone Ventilation Efficiency {dimensionless}
  Coincident;                             !- Sizing Option

OS:ZoneHVAC:EquipmentList,
  {b4ac4282-ff83-4c07-aedf-b8f83cad8266}, !- Handle
  Zone HVAC Equipment List 1,             !- Name
  {5be07037-30ed-4d4f-8eed-c4575aaf8510}, !- Thermal Zone
  ,                                       !- Load Distribution Scheme
  {4b4ad089-fcfc-4b3a-802d-4a33aa58a32b}, !- Zone Equipment 1
  1,                                      !- Zone Equipment Cooling Sequence 1
  1,                                      !- Zone Equipment Heating or No-Load Sequence 1
  {adc4be8d-7446-42e3-9c92-61c2710c1eb8}, !- Zone Equipment Sequential Cooling Fraction Schedule Name 1
  {4d890d0f-bd5f-4b08-b60b-53930e3caadc}; !- Zone Equipment Sequential Heating Fraction Schedule Name 1

OS:AdditionalProperties,
  {9eb7816c-5576-4cc4-bfce-0eec3d8600f1}, !- Handle
  {5be07037-30ed-4d4f-8eed-c4575aaf8510}, !- Object Name
  ObjectType,                             !- Feature Name 1
  String,                                 !- Feature Data Type 1
  conditioned space;                      !- Feature Value 1

OS:Space,
  {833f953b-ce13-4a06-82fb-c1f9457cd2c8}, !- Handle
  conditioned space 1,                    !- Name
  ,                                       !- Space Type Name
  ,                                       !- Default Construction Set Name
  ,                                       !- Default Schedule Set Name
  ,                                       !- Direction of Relative North {deg}
  ,                                       !- X Origin {m}
  ,                                       !- Y Origin {m}
  ,                                       !- Z Origin {m}
  ,                                       !- Building Story Name
  {5be07037-30ed-4d4f-8eed-c4575aaf8510}, !- Thermal Zone Name
  ,                                       !- Part of Total Floor Area
  ,                                       !- Design Specification Outdoor Air Object Name
  ,                                       !- Building Unit Name
  692.06373070848;                        !- Volume {m3}

OS:Schedule:Ruleset,
  {d1c0893a-d9a9-4a43-9dd5-50fee710672c}, !- Handle
  heating setpoint,                       !- Name
  {4845b2a7-d43c-4dbb-b183-475a612dad7a}, !- Schedule Type Limits Name
  {9e8db9af-ed34-4dee-957d-cf6d5e41b306}; !- Default Day Schedule Name

OS:Schedule:Day,
  {9e8db9af-ed34-4dee-957d-cf6d5e41b306}, !- Handle
  heating setpoint default day,           !- Name
  {4845b2a7-d43c-4dbb-b183-475a612dad7a}, !- Schedule Type Limits Name
  ,                                       !- Interpolate to Timestep
  24,                                     !- Hour 1
  0,                                      !- Minute 1
  0;                                      !- Value Until Time 1

OS:Schedule:Rule,
  {4d2731fb-b4e3-4462-892c-0904d6b45002}, !- Handle
  heating setpoint allday rule,           !- Name
  {d1c0893a-d9a9-4a43-9dd5-50fee710672c}, !- Schedule Ruleset Name
  0,                                      !- Rule Order
  {05100a9b-0370-42e8-8ee9-4ab4a7bae6ee}, !- Day Schedule Name
  Yes,                                    !- Apply Sunday
  Yes,                                    !- Apply Monday
  Yes,                                    !- Apply Tuesday
  Yes,                                    !- Apply Wednesday
  Yes,                                    !- Apply Thursday
  Yes,                                    !- Apply Friday
  Yes,                                    !- Apply Saturday
  DateRange,                              !- Date Specification Type
  1,                                      !- Start Month
  1,                                      !- Start Day
  12,                                     !- End Month
  31;                                     !- End Day

OS:Schedule:Day,
  {05100a9b-0370-42e8-8ee9-4ab4a7bae6ee}, !- Handle
  heating setpoint day,                   !- Name
  {4845b2a7-d43c-4dbb-b183-475a612dad7a}, !- Schedule Type Limits Name
  ,                                       !- Interpolate to Timestep
  24,                                     !- Hour 1
  0,                                      !- Minute 1
  20;                                     !- Value Until Time 1

OS:Schedule:Ruleset,
  {4e4d654c-9bd2-4548-97a6-38e7b04e3354}, !- Handle
  cooling setpoint,                       !- Name
  {4845b2a7-d43c-4dbb-b183-475a612dad7a}, !- Schedule Type Limits Name
  {c1f0431b-0c12-4a5f-a5f1-ce847d3a32c2}; !- Default Day Schedule Name

OS:Schedule:Day,
  {c1f0431b-0c12-4a5f-a5f1-ce847d3a32c2}, !- Handle
  cooling setpoint default day,           !- Name
  {4845b2a7-d43c-4dbb-b183-475a612dad7a}, !- Schedule Type Limits Name
  ,                                       !- Interpolate to Timestep
  24,                                     !- Hour 1
  0,                                      !- Minute 1
  0;                                      !- Value Until Time 1

OS:Schedule:Rule,
  {8837fb76-cdf1-4bb7-a29a-292363433f9a}, !- Handle
  cooling setpoint allday rule,           !- Name
  {4e4d654c-9bd2-4548-97a6-38e7b04e3354}, !- Schedule Ruleset Name
  0,                                      !- Rule Order
  {940bf7c0-58cd-443e-bd3f-9cd9029f6495}, !- Day Schedule Name
  Yes,                                    !- Apply Sunday
  Yes,                                    !- Apply Monday
  Yes,                                    !- Apply Tuesday
  Yes,                                    !- Apply Wednesday
  Yes,                                    !- Apply Thursday
  Yes,                                    !- Apply Friday
  Yes,                                    !- Apply Saturday
  DateRange,                              !- Date Specification Type
  1,                                      !- Start Month
  1,                                      !- Start Day
  12,                                     !- End Month
  31;                                     !- End Day

OS:Schedule:Day,
  {940bf7c0-58cd-443e-bd3f-9cd9029f6495}, !- Handle
  cooling setpoint day,                   !- Name
  {4845b2a7-d43c-4dbb-b183-475a612dad7a}, !- Schedule Type Limits Name
  ,                                       !- Interpolate to Timestep
  24,                                     !- Hour 1
  0,                                      !- Minute 1
  25.5555555555556;                       !- Value Until Time 1

OS:ThermostatSetpoint:DualSetpoint,
  {6fa0259b-8236-4857-9614-80b7d2cf073f}, !- Handle
  conditioned space temperature setpoint, !- Name
  {d1c0893a-d9a9-4a43-9dd5-50fee710672c}, !- Heating Setpoint Temperature Schedule Name
  {4e4d654c-9bd2-4548-97a6-38e7b04e3354}, !- Cooling Setpoint Temperature Schedule Name
  0;                                      !- Temperature Difference Between Cutout And Setpoint {deltaC}

OS:ScheduleTypeLimits,
  {4845b2a7-d43c-4dbb-b183-475a612dad7a}, !- Handle
  Temperature,                            !- Name
  ,                                       !- Lower Limit Value
  ,                                       !- Upper Limit Value
  Continuous,                             !- Numeric Type
  Temperature;                            !- Unit Type

OS:Surface,
  {f345bef7-367c-4e2e-91c9-c2dc93d524f2}, !- Handle
  Roof1,                                  !- Name
  RoofCeiling,                            !- Surface Type
  {c3897f03-b29f-4021-859e-6a8863d22eb9}, !- Construction Name
  {6b32121c-0727-4bc7-8f5f-969bb253c492}, !- Space Name
  Outdoors,                               !- Outside Boundary Condition
  ,                                       !- Outside Boundary Condition Object
  SunExposed,                             !- Sun Exposure
  WindExposed,                            !- Wind Exposure
  ,                                       !- View Factor to Ground
  ,                                       !- Number of Vertices
  9.8030170292795, 22.3990406761293, 3.048, !- X,Y,Z Vertex 1 {m}
  9.8030170292795, 11.1328146279089, 8.6811130241102, !- X,Y,Z Vertex 2 {m}
  22.3990406761293, 11.1328146279089, 8.6811130241102, !- X,Y,Z Vertex 3 {m}
  22.3990406761293, 22.3990406761293, 3.048; !- X,Y,Z Vertex 4 {m}

OS:AdditionalProperties,
  {bb46261c-9479-46a3-99eb-23a8fab3c2b8}, !- Handle
  {f345bef7-367c-4e2e-91c9-c2dc93d524f2}, !- Object Name
  Length,                                 !- Feature Name 1
  Double,                                 !- Feature Data Type 1
  41.325536899113608,                     !- Feature Value 1
  Width,                                  !- Feature Name 2
  Double,                                 !- Feature Data Type 2
  41.325536899113601,                     !- Feature Value 2
  Azimuth,                                !- Feature Name 3
  Integer,                                !- Feature Data Type 3
  0,                                      !- Feature Value 3
  Tilt,                                   !- Feature Name 4
  Double,                                 !- Feature Data Type 4
  0.5,                                    !- Feature Value 4
  SurfaceType,                            !- Feature Name 5
  String,                                 !- Feature Data Type 5
  Roof;                                   !- Feature Value 5

OS:ThermalZone,
  {91bd55e0-8ecc-42da-bde4-bcc98290eb73}, !- Handle
  attic - vented,                         !- Name
  1,                                      !- Multiplier
  ,                                       !- Ceiling Height {m}
  356.390921899745,                       !- Volume {m3}
  ,                                       !- Floor Area {m2}
  ,                                       !- Zone Inside Convection Algorithm
  ,                                       !- Zone Outside Convection Algorithm
  ,                                       !- Zone Conditioning Equipment List Name
  {ca6ea824-0b48-403f-bee9-c7ba68e3fc62}, !- Zone Air Inlet Port List
  {fc1a6561-fa9e-44e2-9706-3ffdb344eb94}, !- Zone Air Exhaust Port List
  {fb9ad3b6-69a2-4686-b16f-3c47876e9a90}, !- Zone Air Node Name
  {e5832cfb-1554-43f3-a72c-e7a7e0f0827d}, !- Zone Return Air Port List
  ,                                       !- Primary Daylighting Control Name
  ,                                       !- Fraction of Zone Controlled by Primary Daylighting Control
  ,                                       !- Secondary Daylighting Control Name
  ,                                       !- Fraction of Zone Controlled by Secondary Daylighting Control
  ,                                       !- Illuminance Map Name
  ,                                       !- Group Rendering Name
  ,                                       !- Thermostat Name
  No;                                     !- Use Ideal Air Loads

OS:Node,
  {0a72b301-878d-48f4-97e3-9fe03234af60}, !- Handle
  Node 2,                                 !- Name
  {fb9ad3b6-69a2-4686-b16f-3c47876e9a90}, !- Inlet Port
  ;                                       !- Outlet Port

OS:Connection,
  {fb9ad3b6-69a2-4686-b16f-3c47876e9a90}, !- Handle
  {91bd55e0-8ecc-42da-bde4-bcc98290eb73}, !- Source Object
  11,                                     !- Outlet Port
  {0a72b301-878d-48f4-97e3-9fe03234af60}, !- Target Object
  2;                                      !- Inlet Port

OS:PortList,
  {ca6ea824-0b48-403f-bee9-c7ba68e3fc62}, !- Handle
  {91bd55e0-8ecc-42da-bde4-bcc98290eb73}; !- HVAC Component

OS:PortList,
  {fc1a6561-fa9e-44e2-9706-3ffdb344eb94}, !- Handle
  {91bd55e0-8ecc-42da-bde4-bcc98290eb73}; !- HVAC Component

OS:PortList,
  {e5832cfb-1554-43f3-a72c-e7a7e0f0827d}, !- Handle
  {91bd55e0-8ecc-42da-bde4-bcc98290eb73}; !- HVAC Component

OS:Sizing:Zone,
  {3b9aa4d0-8ed6-40ba-9b1e-674c88481be0}, !- Handle
  {91bd55e0-8ecc-42da-bde4-bcc98290eb73}, !- Zone or ZoneList Name
  SupplyAirTemperature,                   !- Zone Cooling Design Supply Air Temperature Input Method
  14,                                     !- Zone Cooling Design Supply Air Temperature {C}
  11.11,                                  !- Zone Cooling Design Supply Air Temperature Difference {deltaC}
  SupplyAirTemperature,                   !- Zone Heating Design Supply Air Temperature Input Method
  40,                                     !- Zone Heating Design Supply Air Temperature {C}
  11.11,                                  !- Zone Heating Design Supply Air Temperature Difference {deltaC}
  0.0085,                                 !- Zone Cooling Design Supply Air Humidity Ratio {kg-H2O/kg-air}
  0.008,                                  !- Zone Heating Design Supply Air Humidity Ratio {kg-H2O/kg-air}
  ,                                       !- Zone Heating Sizing Factor
  ,                                       !- Zone Cooling Sizing Factor
  DesignDay,                              !- Cooling Design Air Flow Method
  ,                                       !- Cooling Design Air Flow Rate {m3/s}
  ,                                       !- Cooling Minimum Air Flow per Zone Floor Area {m3/s-m2}
  ,                                       !- Cooling Minimum Air Flow {m3/s}
  ,                                       !- Cooling Minimum Air Flow Fraction
  DesignDay,                              !- Heating Design Air Flow Method
  ,                                       !- Heating Design Air Flow Rate {m3/s}
  ,                                       !- Heating Maximum Air Flow per Zone Floor Area {m3/s-m2}
  ,                                       !- Heating Maximum Air Flow {m3/s}
  ,                                       !- Heating Maximum Air Flow Fraction
  No,                                     !- Account for Dedicated Outdoor Air System
  NeutralSupplyAir,                       !- Dedicated Outdoor Air System Control Strategy
  autosize,                               !- Dedicated Outdoor Air Low Setpoint Temperature for Design {C}
  autosize,                               !- Dedicated Outdoor Air High Setpoint Temperature for Design {C}
  Sensible Load Only No Latent Load,      !- Zone Load Sizing Method
  HumidityRatioDifference,                !- Zone Latent Cooling Design Supply Air Humidity Ratio Input Method
  ,                                       !- Zone Dehumidification Design Supply Air Humidity Ratio {kgWater/kgDryAir}
  0.005,                                  !- Zone Cooling Design Supply Air Humidity Ratio Difference {kgWater/kgDryAir}
  HumidityRatioDifference,                !- Zone Latent Heating Design Supply Air Humidity Ratio Input Method
  ,                                       !- Zone Humidification Design Supply Air Humidity Ratio {kgWater/kgDryAir}
  0.005,                                  !- Zone Humidification Design Supply Air Humidity Ratio Difference {kgWater/kgDryAir}
  ,                                       !- Zone Humidistat Dehumidification Set Point Schedule Name
  ,                                       !- Zone Humidistat Humidification Set Point Schedule Name
  ,                                       !- Design Zone Air Distribution Effectiveness in Cooling Mode
  ,                                       !- Design Zone Air Distribution Effectiveness in Heating Mode
  ,                                       !- Design Zone Secondary Recirculation Fraction {dimensionless}
  ,                                       !- Design Minimum Zone Ventilation Efficiency {dimensionless}
  Coincident;                             !- Sizing Option

OS:ZoneHVAC:EquipmentList,
  {3ac65497-e45f-4a4e-abab-e9e985e4df64}, !- Handle
  Zone HVAC Equipment List 2,             !- Name
  {91bd55e0-8ecc-42da-bde4-bcc98290eb73}; !- Thermal Zone

OS:AdditionalProperties,
  {aa38f72d-b604-44b8-8ff2-805e12299c67}, !- Handle
  {91bd55e0-8ecc-42da-bde4-bcc98290eb73}, !- Object Name
  ObjectType,                             !- Feature Name 1
  String,                                 !- Feature Data Type 1
  attic - vented;                         !- Feature Value 1

OS:Space,
  {6b32121c-0727-4bc7-8f5f-969bb253c492}, !- Handle
  attic - vented 1,                       !- Name
  ,                                       !- Space Type Name
  ,                                       !- Default Construction Set Name
  ,                                       !- Default Schedule Set Name
  ,                                       !- Direction of Relative North {deg}
  ,                                       !- X Origin {m}
  ,                                       !- Y Origin {m}
  ,                                       !- Z Origin {m}
  ,                                       !- Building Story Name
  {91bd55e0-8ecc-42da-bde4-bcc98290eb73}, !- Thermal Zone Name
  ,                                       !- Part of Total Floor Area
  ,                                       !- Design Specification Outdoor Air Object Name
  ,                                       !- Building Unit Name
  356.390921899745;                       !- Volume {m3}

OS:Material,
  {cd00fd1f-3126-46b5-a1f4-99f46a09d0db}, !- Handle
  asphalt or fiberglass shingles,         !- Name
  Rough,                                  !- Roughness
  0.00635,                                !- Thickness {m}
  0.162714,                               !- Conductivity {W/m-K}
  1121.4,                                 !- Density {kg/m3}
  1465.45,                                !- Specific Heat {J/kg-K}
  0.9,                                    !- Thermal Absorptance
  0.85,                                   !- Solar Absorptance