
OS:Version,
  {9624918f-4478-4f0e-87e2-9f9c714e198b}, !- Handle
  3.9.0;                                  !- Version Identifier

OS:SimulationControl,
  {309b360c-cc34-4972-b8a7-4fa66b5c3c6a}, !- Handle
  ,                                       !- Do Zone Sizing Calculation
  ,                                       !- Do System Sizing Calculation
  ,                                       !- Do Plant Sizing Calculation
  No;                                     !- Run Simulation for Sizing Periods

OS:Timestep,
  {48c6a533-62c4-43b7-8d72-29fe6f42b5e0}, !- Handle
  1;                                      !- Number of Timesteps per Hour

OS:ShadowCalculation,
  {3d17f5fe-9c7c-4886-89a6-8e4074c6fd00}, !- Handle
  PolygonClipping,                        !- Shading Calculation Method
  ,                                       !- Shading Calculation Update Frequency Method
  20,                                     !- Shading Calculation Update Frequency
  200,                                    !- Maximum Figures in Shadow Overlap Calculations
  ,                                       !- Polygon Clipping Algorithm
  512,                                    !- Pixel Counting Resolution
  ,                                       !- Sky Diffuse Modeling Algorithm
  No,                                     !- Output External Shading Calculation Results
  No,                                     !- Disable Self-Shading Within Shading Zone Groups
  No;                                     !- Disable Self-Shading From Shading Zone Groups to Other Zones

OS:SurfaceConvectionAlgorithm:Outside,
  {46bf82f1-03f4-4ed6-802e-ff38eaa750a2}, !- Handle
  DOE-2;                                  !- Algorithm

OS:SurfaceConvectionAlgorithm:Inside,
  {06952a48-d361-48b6-81ed-8bdd6eccf0cf}, !- Handle
  TARP;                                   !- Algorithm

OS:ZoneCapacitanceMultiplier:ResearchSpecial,
  {bcd9d158-4909-4962-b1b4-ae145ee61652}, !- Handle
  7,                                      !- Temperature Capacity Multiplier
  15,                                     !- Humidity Capacity Multiplier
  ;                                       !- Carbon Dioxide Capacity Multiplier

OS:ConvergenceLimits,
  {d7ae1a4d-63d5-4d2d-89b1-51904e5cb596}, !- Handle
  0;                                      !- Minimum System Timestep {minutes}

OS:RunPeriod,
  {0840ba91-a32e-4bcb-8c9c-96cd1dd9412c}, !- Handle
  Run Period 1,                           !- Name
  1,                                      !- Begin Month
  1,                                      !- Begin Day of Month
  12,                                     !- End Month
  31,                                     !- End Day of Month
  ,                                       !- Use Weather File Holidays and Special Days
  ,                                       !- Use Weather File Daylight Saving Period
  ,                                       !- Apply Weekend Holiday Rule
  ,                                       !- Use Weather File Rain Indicators
  ,                                       !- Use Weather File Snow Indicators
  ;                                       !- Number of Times Runperiod to be Repeated

OS:PerformancePrecisionTradeoffs,
  {43ca233f-257e-4f1e-8943-7d098b278daf}, !- Handle
  ,                                       !- Use Coil Direct Solutions
  CarrollMRT;                             !- Zone Radiant Exchange Algorithm

OS:WeatherFile,
  {fe29bce2-7109-4266-976a-da4d69909a44}, !- Handle
  Buffalo Niagara Intl Ap,                !- City
  NY,                                     !- State Province Region
  USA,                                    !- Country
  TMY3,                                   !- Data Source
  725280,                                 !- WMO Number
  42.93,                                  !- Latitude {deg}
  -78.73,                                 !- Longitude {deg}
  -5,                                     !- Time Zone {hr}
  215,                                    !- Elevation {m}
  /Users/nmoore/github/urbanopt-example-geojson-project/example_project/weather/USA_NY_Buffalo-Greater.Buffalo.Intl.AP.725280_TMY3.epw, !- Url
  6B50E0FF,                               !- Checksum
  ,                                       !- Start Date Actual Year
  Sunday;                                 !- Start Day of Week

OS:YearDescription,
  {05dbbed6-f41f-4ef4-83dd-63cf1656124e}, !- Handle
  2007,                                   !- Calendar Year
  ,                                       !- Day of Week for Start Day
  ;                                       !- Is Leap Year

OS:Site,
  {3ce368ca-c866-4fd6-93ff-99a3600eb5b8}, !- Handle
  Buffalo Niagara Intl Ap_NY,             !- Name
  42.93,                                  !- Latitude {deg}
  -78.73,                                 !- Longitude {deg}
  -5,                                     !- Time Zone {hr}
  215,                                    !- Elevation {m}
  Suburbs,                                !- Terrain
  Yes;                                    !- Keep Site Location Information

OS:RunPeriodControl:DaylightSavingTime,
  {44301aaf-ab38-4d5a-a3e3-8ec21a60be1f}, !- Handle
  Mar 12,                                 !- Start Date
  Nov 5;                                  !- End Date

OS:Site:GroundTemperature:Shallow,
  {8c86187f-82c5-403e-a23c-d7bf1658bfe2}, !- Handle
  4.30207395723828,                       !- January Surface Ground Temperature {C}
  2.29327249652502,                       !- February Surface Ground Temperature {C}
  2.13240047156047,                       !- March Surface Ground Temperature {C}
  3.08567940719286,                       !- April Surface Ground Temperature {C}
  6.91256312497526,                       !- May Surface Ground Temperature {C}
  10.7216195949507,                       !- June Surface Ground Temperature {C}
  14.0238679822574,                       !- July Surface Ground Temperature {C}
  16.1157611184724,                       !- August Surface Ground Temperature {C}
  16.2934789303462,                       !- September Surface Ground Temperature {C}
  14.5920754632847,                       !- October Surface Ground Temperature {C}
  11.374036348653,                        !- November Surface Ground Temperature {C}
  7.68182621661674;                       !- December Surface Ground Temperature {C}

OS:ThermalZone,
  {4668d79f-4d75-493f-ac77-20269dbd2d07}, !- Handle
  conditioned space,                      !- Name
  1,                                      !- Multiplier
  ,                                       !- Ceiling Height {m}
  692.06373070848,                        !- Volume {m3}
  ,                                       !- Floor Area {m2}
  ,                                       !- Zone Inside Convection Algorithm
  ,                                       !- Zone Outside Convection Algorithm
  ,                                       !- Zone Conditioning Equipment List Name
  {c8e89dd2-f069-4e72-9f3d-76ab176fd798}, !- Zone Air Inlet Port List
  {7dc175ea-60ae-4297-8e53-e99317378564}, !- Zone Air Exhaust Port List
  {2fdd0005-ae22-480f-aa39-f7c7fe046ed2}, !- Zone Air Node Name
  {30dd76de-2eaa-496e-8415-9d8ad50a8a23}, !- Zone Return Air Port List
  ,                                       !- Primary Daylighting Control Name
  ,                                       !- Fraction of Zone Controlled by Primary Daylighting Control
  ,                                       !- Secondary Daylighting Control Name
  ,                                       !- Fraction of Zone Controlled by Secondary Daylighting Control
  ,                                       !- Illuminance Map Name
  ,                                       !- Group Rendering Name
  {11452b7d-3969-4aaa-8c4a-9f5712217171}, !- Thermostat Name
  No;                                     !- Use Ideal Air Loads

OS:Node,
  {a1b9fd00-9307-4ccf-abe6-b73dc86fa087}, !- Handle
  Node 1,                                 !- Name
  {2fdd0005-ae22-480f-aa39-f7c7fe046ed2}, !- Inlet Port
  ;                                       !- Outlet Port

OS:Connection,
  {2fdd0005-ae22-480f-aa39-f7c7fe046ed2}, !- Handle
  {4668d79f-4d75-493f-ac77-20269dbd2d07}, !- Source Object
  11,                                     !- Outlet Port
  {a1b9fd00-9307-4ccf-abe6-b73dc86fa087}, !- Target Object
  2;                                      !- Inlet Port

OS:PortList,
  {c8e89dd2-f069-4e72-9f3d-76ab176fd798}, !- Handle
  {4668d79f-4d75-493f-ac77-20269dbd2d07}, !- HVAC Component
  {0af7460f-8bde-4638-b117-50c35eb0e167}; !- Port 1

OS:PortList,
  {7dc175ea-60ae-4297-8e53-e99317378564}, !- Handle
  {4668d79f-4d75-493f-ac77-20269dbd2d07}; !- HVAC Component

OS:PortList,
  {30dd76de-2eaa-496e-8415-9d8ad50a8a23}, !- Handle
  {4668d79f-4d75-493f-ac77-20269dbd2d07}, !- HVAC Component
  {86f1a74b-9613-4363-a8a2-8716179f93b7}; !- Port 1

OS:Sizing:Zone,
  {60b1c868-61aa-45fc-aef5-f5f1e4f0702a}, !- Handle
  {4668d79f-4d75-493f-ac77-20269dbd2d07}, !- Zone or ZoneList Name
  SupplyAirTemperature,                   !- Zone Cooling Design Supply Air Temperature Input Method
  14,                                     !- Zone Cooling Design Supply Air Temperature {C}
  11.11,                                  !- Zone Cooling Design Supply Air Temperature Difference {deltaC}
  SupplyAirTemperature,                   !- Zone Heating Design Supply Air Temperature Input Method
  40,                                     !- Zone Heating Design Supply Air Temperature {C}
  11.11,                                  !- Zone Heating Design Supply Air Temperature Difference {deltaC}
  0.0085,                                 !- Zone Cooling Design Supply Air Humidity Ratio {kg-H2O/kg-air}
  0.008,                                  !- Zone Heating Design Supply Air Humidity Ratio {kg-H2O/kg-air}
  ,                                       !- Zone Heating Sizing Factor
  ,                                       !- Zone Cooling Sizing Factor
  DesignDay,                              !- Cooling Design Air Flow Method
  ,                                       !- Cooling Design Air Flow Rate {m3/s}
  ,                                       !- Cooling Minimum Air Flow per Zone Floor Area {m3/s-m2}
  ,                                       !- Cooling Minimum Air Flow {m3/s}
  ,                                       !- Cooling Minimum Air Flow Fraction
  DesignDay,                              !- Heating Design Air Flow Method
  ,                                       !- Heating Design Air Flow Rate {m3/s}
  ,                                       !- Heating Maximum Air Flow per Zone Floor Area {m3/s-m2}
  ,                                       !- Heating Maximum Air Flow {m3/s}
  ,                                       !- Heating Maximum Air Flow Fraction
  No,                                     !- Account for Dedicated Outdoor Air System
  NeutralSupplyAir,                       !- Dedicated Outdoor Air System Control Strategy
  autosize,                               !- Dedicated Outdoor Air Low Setpoint Temperature for Design {C}
  autosize,                               !- Dedicated Outdoor Air High Setpoint Temperature for Design {C}
  Sensible Load Only No Latent Load,      !- Zone Load Sizing Method
  HumidityRatioDifference,                !- Zone Latent Cooling Design Supply Air Humidity Ratio Input Method
  ,                                       !- Zone Dehumidification Design Supply Air Humidity Ratio {kgWater/kgDryAir}
  0.005,                                  !- Zone Cooling Design Supply Air Humidity Ratio Difference {kgWater/kgDryAir}
  HumidityRatioDifference,                !- Zone Latent Heating Design Supply Air Humidity Ratio Input Method
  ,                                       !- Zone Humidification Design Supply Air Humidity Ratio {kgWater/kgDryAir}
  0.005,                                  !- Zone Humidification Design Supply Air Humidity Ratio Difference {kgWater/kgDryAir}
  ,                                       !- Zone Humidistat Dehumidification Set Point Schedule Name
  ,                                       !- Zone Humidistat Humidification Set Point Schedule Name
  ,                                       !- Design Zone Air Distribution Effectiveness in Cooling Mode
  ,                                       !- Design Zone Air Distribution Effectiveness in Heating Mode
  ,                                       !- Design Zone Secondary Recirculation Fraction {dimensionless}
  ,                                       !- Design Minimum Zone Ventilation Efficiency {dimensionless}
  Coincident;                             !- Sizing Option

OS:ZoneHVAC:EquipmentList,
  {d4512c68-90f5-47f1-8ca5-87eed1d790d9}, !- Handle
  Zone HVAC Equipment List 1,             !- Name
  {4668d79f-4d75-493f-ac77-20269dbd2d07}, !- Thermal Zone
  ,                                       !- Load Distribution Scheme
  {72419794-6cab-45e3-80bb-96f5e569d663}, !- Zone Equipment 1
  1,                                      !- Zone Equipment Cooling Sequence 1
  1,                                      !- Zone Equipment Heating or No-Load Sequence 1
  {f7943f64-4467-474a-9dfe-aab167750658}, !- Zone Equipment Sequential Cooling Fraction Schedule Name 1
  {a5f5c639-41af-4782-9227-76dd13ff4df5}; !- Zone Equipment Sequential Heating Fraction Schedule Name 1

OS:AdditionalProperties,
  {10ee5354-2ac4-4e30-b2f5-246d6462509a}, !- Handle
  {4668d79f-4d75-493f-ac77-20269dbd2d07}, !- Object Name
  ObjectType,                             !- Feature Name 1
  String,                                 !- Feature Data Type 1
  conditioned space;                      !- Feature Value 1

OS:Space,
  {5b542827-a9f9-4342-8030-d9e4794867e3}, !- Handle
  conditioned space 1,                    !- Name
  ,                                       !- Space Type Name
  ,                                       !- Default Construction Set Name
  ,                                       !- Default Schedule Set Name
  ,                                       !- Direction of Relative North {deg}
  ,                                       !- X Origin {m}
  ,                                       !- Y Origin {m}
  ,                                       !- Z Origin {m}
  ,                                       !- Building Story Name
  {4668d79f-4d75-493f-ac77-20269dbd2d07}, !- Thermal Zone Name
  ,                                       !- Part of Total Floor Area
  ,                                       !- Design Specification Outdoor Air Object Name
  ,                                       !- Building Unit Name
  692.06373070848;                        !- Volume {m3}

OS:Schedule:Ruleset,
  {e158e2c9-40f5-42c6-9d94-6209d228bd04}, !- Handle
  heating setpoint,                       !- Name
  {da854d16-246e-4733-8cbd-3ae28f136ff2}, !- Schedule Type Limits Name
  {deddef08-dde3-47f8-bea4-98ce08e9abbb}; !- Default Day Schedule Name

OS:Schedule:Day,
  {deddef08-dde3-47f8-bea4-98ce08e9abbb}, !- Handle
  heating setpoint default day,           !- Name
  {da854d16-246e-4733-8cbd-3ae28f136ff2}, !- Schedule Type Limits Name
  ,                                       !- Interpolate to Timestep
  24,                                     !- Hour 1
  0,                                      !- Minute 1
  0;                                      !- Value Until Time 1

OS:Schedule:Rule,
  {12c8171e-b39c-4f55-8542-79f82594915e}, !- Handle
  heating setpoint allday rule,           !- Name
  {e158e2c9-40f5-42c6-9d94-6209d228bd04}, !- Schedule Ruleset Name
  0,                                      !- Rule Order
  {56a63ce8-d24b-48b2-ae63-1f3d6947991c}, !- Day Schedule Name
  Yes,                                    !- Apply Sunday
  Yes,                                    !- Apply Monday
  Yes,                                    !- Apply Tuesday
  Yes,                                    !- Apply Wednesday
  Yes,                                    !- Apply Thursday
  Yes,                                    !- Apply Friday
  Yes,                                    !- Apply Saturday
  DateRange,                              !- Date Specification Type
  1,                                      !- Start Month
  1,                                      !- Start Day
  12,                                     !- End Month
  31;                                     !- End Day

OS:Schedule:Day,
  {56a63ce8-d24b-48b2-ae63-1f3d6947991c}, !- Handle
  heating setpoint day,                   !- Name
  {da854d16-246e-4733-8cbd-3ae28f136ff2}, !- Schedule Type Limits Name
  ,                                       !- Interpolate to Timestep
  24,                                     !- Hour 1
  0,                                      !- Minute 1
  20;                                     !- Value Until Time 1

OS:Schedule:Ruleset,
  {69943784-ee84-458d-8188-7764dd5cc29f}, !- Handle
  cooling setpoint,                       !- Name
  {da854d16-246e-4733-8cbd-3ae28f136ff2}, !- Schedule Type Limits Name
  {b72957d7-78a6-4de1-a2b5-c6977d9b449d}; !- Default Day Schedule Name

OS:Schedule:Day,
  {b72957d7-78a6-4de1-a2b5-c6977d9b449d}, !- Handle
  cooling setpoint default day,           !- Name
  {da854d16-246e-4733-8cbd-3ae28f136ff2}, !- Schedule Type Limits Name
  ,                                       !- Interpolate to Timestep
  24,                                     !- Hour 1
  0,                                      !- Minute 1
  0;                                      !- Value Until Time 1

OS:Schedule:Rule,
  {7168eceb-63c5-4854-ae05-10471fe73a38}, !- Handle
  cooling setpoint allday rule,           !- Name
  {69943784-ee84-458d-8188-7764dd5cc29f}, !- Schedule Ruleset Name
  0,                                      !- Rule Order
  {66288178-0bc2-40d4-8117-81d04eff4057}, !- Day Schedule Name
  Yes,                                    !- Apply Sunday
  Yes,                                    !- Apply Monday
  Yes,                                    !- Apply Tuesday
  Yes,                                    !- Apply Wednesday
  Yes,                                    !- Apply Thursday
  Yes,                                    !- Apply Friday
  Yes,                                    !- Apply Saturday
  DateRange,                              !- Date Specification Type
  1,                                      !- Start Month
  1,                                      !- Start Day
  12,                                     !- End Month
  31;                                     !- End Day

OS:Schedule:Day,
  {66288178-0bc2-40d4-8117-81d04eff4057}, !- Handle
  cooling setpoint day,                   !- Name
  {da854d16-246e-4733-8cbd-3ae28f136ff2}, !- Schedule Type Limits Name
  ,                                       !- Interpolate to Timestep
  24,                                     !- Hour 1
  0,                                      !- Minute 1
  25.5555555555556;                       !- Value Until Time 1

OS:ThermostatSetpoint:DualSetpoint,
  {11452b7d-3969-4aaa-8c4a-9f5712217171}, !- Handle
  conditioned space temperature setpoint, !- Name
  {e158e2c9-40f5-42c6-9d94-6209d228bd04}, !- Heating Setpoint Temperature Schedule Name
  {69943784-ee84-458d-8188-7764dd5cc29f}, !- Cooling Setpoint Temperature Schedule Name
  0;                                      !- Temperature Difference Between Cutout And Setpoint {deltaC}

OS:ScheduleTypeLimits,
  {da854d16-246e-4733-8cbd-3ae28f136ff2}, !- Handle
  Temperature,                            !- Name
  ,                                       !- Lower Limit Value
  ,                                       !- Upper Limit Value
  Continuous,                             !- Numeric Type
  Temperature;                            !- Unit Type

OS:Surface,
  {91d7e413-552d-43ca-8ab4-05771760c9ce}, !- Handle
  Roof1,                                  !- Name
  RoofCeiling,                            !- Surface Type
  {33339241-b223-48b2-8946-cfe812ddff1a}, !- Construction Name
  {cda1c072-2076-415c-acca-dcf9d1862831}, !- Space Name
  Outdoors,                               !- Outside Boundary Condition
  ,                                       !- Outside Boundary Condition Object
  SunExposed,                             !- Sun Exposure
  WindExposed,                            !- Wind Exposure
  ,                                       !- View Factor to Ground
  ,                                       !- Number of Vertices
  -26.9347048849634, 58.0557891618865, 2.4384, !- X,Y,Z Vertex 1 {m}
  -26.9347048849634, 46.7895631136661, 8.0715130241102, !- X,Y,Z Vertex 2 {m}
  -14.3386812381136, 46.7895631136661, 8.0715130241102, !- X,Y,Z Vertex 3 {m}
  -14.3386812381136, 58.0557891618865, 2.4384; !- X,Y,Z Vertex 4 {m}

OS:AdditionalProperties,
  {b3488ed1-f75f-4227-8901-79fbbf541000}, !- Handle
  {91d7e413-552d-43ca-8ab4-05771760c9ce}, !- Object Name
  Length,                                 !- Feature Name 1
  Double,                                 !- Feature Data Type 1
  41.325536899113608,                     !- Feature Value 1
  Width,                                  !- Feature Name 2
  Double,                                 !- Feature Data Type 2
  41.325536899113601,                     !- Feature Value 2
  Azimuth,                                !- Feature Name 3
  Integer,                                !- Feature Data Type 3
  0,                                      !- Feature Value 3
  Tilt,                                   !- Feature Name 4
  Double,                                 !- Feature Data Type 4
  0.5,                                    !- Feature Value 4
  SurfaceType,                            !- Feature Name 5
  String,                                 !- Feature Data Type 5
  Roof;                                   !- Feature Value 5

OS:ThermalZone,
  {bb34a0d2-286e-4a73-a70f-759b47bd7f3d}, !- Handle
  attic - vented,                         !- Name
  1,                                      !- Multiplier
  ,                                       !- Ceiling Height {m}
  356.389957095237,                       !- Volume {m3}
  ,                                       !- Floor Area {m2}
  ,                                       !- Zone Inside Convection Algorithm
  ,                                       !- Zone Outside Convection Algorithm
  ,                                       !- Zone Conditioning Equipment List Name
  {540a7008-695f-48e8-9f5a-0cf2dab32e73}, !- Zone Air Inlet Port List
  {e5f87160-4c11-4d4e-a134-10f4eb484a12}, !- Zone Air Exhaust Port List
  {f5f31c78-acba-4417-989a-bc2a6de0d5d8}, !- Zone Air Node Name
  {a42a0197-c5e9-4bba-9f1a-de2b54e1ee6e}, !- Zone Return Air Port List
  ,                                       !- Primary Daylighting Control Name
  ,                                       !- Fraction of Zone Controlled by Primary Daylighting Control
  ,                                       !- Secondary Daylighting Control Name
  ,                                       !- Fraction of Zone Controlled by Secondary Daylighting Control
  ,                                       !- Illuminance Map Name
  ,                                       !- Group Rendering Name
  ,                                       !- Thermostat Name
  No;                                     !- Use Ideal Air Loads

OS:Node,
  {aaa11117-9968-48d2-96c4-240670e5ddbd}, !- Handle
  Node 2,                                 !- Name
  {f5f31c78-acba-4417-989a-bc2a6de0d5d8}, !- Inlet Port
  ;                                       !- Outlet Port

OS:Connection,
  {f5f31c78-acba-4417-989a-bc2a6de0d5d8}, !- Handle
  {bb34a0d2-286e-4a73-a70f-759b47bd7f3d}, !- Source Object
  11,                                     !- Outlet Port
  {aaa11117-9968-48d2-96c4-240670e5ddbd}, !- Target Object
  2;                                      !- Inlet Port

OS:PortList,
  {540a7008-695f-48e8-9f5a-0cf2dab32e73}, !- Handle
  {bb34a0d2-286e-4a73-a70f-759b47bd7f3d}; !- HVAC Component

OS:PortList,
  {e5f87160-4c11-4d4e-a134-10f4eb484a12}, !- Handle
  {bb34a0d2-286e-4a73-a70f-759b47bd7f3d}; !- HVAC Component

OS:PortList,
  {a42a0197-c5e9-4bba-9f1a-de2b54e1ee6e}, !- Handle
  {bb34a0d2-286e-4a73-a70f-759b47bd7f3d}; !- HVAC Component

OS:Sizing:Zone,
  {2dbf996b-b0d9-49df-8f91-b3f53c1d00d9}, !- Handle
  {bb34a0d2-286e-4a73-a70f-759b47bd7f3d}, !- Zone or ZoneList Name
  SupplyAirTemperature,                   !- Zone Cooling Design Supply Air Temperature Input Method
  14,                                     !- Zone Cooling Design Supply Air Temperature {C}
  11.11,                                  !- Zone Cooling Design Supply Air Temperature Difference {deltaC}
  SupplyAirTemperature,                   !- Zone Heating Design Supply Air Temperature Input Method
  40,                                     !- Zone Heating Design Supply Air Temperature {C}
  11.11,                                  !- Zone Heating Design Supply Air Temperature Difference {deltaC}
  0.0085,                                 !- Zone Cooling Design Supply Air Humidity Ratio {kg-H2O/kg-air}
  0.008,                                  !- Zone Heating Design Supply Air Humidity Ratio {kg-H2O/kg-air}
  ,                                       !- Zone Heating Sizing Factor
  ,                                       !- Zone Cooling Sizing Factor
  DesignDay,                              !- Cooling Design Air Flow Method
  ,                                       !- Cooling Design Air Flow Rate {m3/s}
  ,                                       !- Cooling Minimum Air Flow per Zone Floor Area {m3/s-m2}
  ,                                       !- Cooling Minimum Air Flow {m3/s}
  ,                                       !- Cooling Minimum Air Flow Fraction
  DesignDay,                              !- Heating Design Air Flow Method
  ,                                       !- Heating Design Air Flow Rate {m3/s}
  ,                                       !- Heating Maximum Air Flow per Zone Floor Area {m3/s-m2}
  ,                                       !- Heating Maximum Air Flow {m3/s}
  ,                                       !- Heating Maximum Air Flow Fraction
  No,                                     !- Account for Dedicated Outdoor Air System
  NeutralSupplyAir,                       !- Dedicated Outdoor Air System Control Strategy
  autosize,                               !- Dedicated Outdoor Air Low Setpoint Temperature for Design {C}
  autosize,                               !- Dedicated Outdoor Air High Setpoint Temperature for Design {C}
  Sensible Load Only No Latent Load,      !- Zone Load Sizing Method
  HumidityRatioDifference,                !- Zone Latent Cooling Design Supply Air Humidity Ratio Input Method
  ,                                       !- Zone Dehumidification Design Supply Air Humidity Ratio {kgWater/kgDryAir}
  0.005,                                  !- Zone Cooling Design Supply Air Humidity Ratio Difference {kgWater/kgDryAir}
  HumidityRatioDifference,                !- Zone Latent Heating Design Supply Air Humidity Ratio Input Method
  ,                                       !- Zone Humidification Design Supply Air Humidity Ratio {kgWater/kgDryAir}
  0.005,                                  !- Zone Humidification Design Supply Air Humidity Ratio Difference {kgWater/kgDryAir}
  ,                                       !- Zone Humidistat Dehumidification Set Point Schedule Name
  ,                                       !- Zone Humidistat Humidification Set Point Schedule Name
  ,                                       !- Design Zone Air Distribution Effectiveness in Cooling Mode
  ,                                       !- Design Zone Air Distribution Effectiveness in Heating Mode
  ,                                       !- Design Zone Secondary Recirculation Fraction {dimensionless}
  ,                                       !- Design Minimum Zone Ventilation Efficiency {dimensionless}
  Coincident;                             !- Sizing Option

OS:ZoneHVAC:EquipmentList,
  {0a09bfc2-1354-431a-930a-673334c49d6b}, !- Handle
  Zone HVAC Equipment List 2,             !- Name
  {bb34a0d2-286e-4a73-a70f-759b47bd7f3d}; !- Thermal Zone

OS:AdditionalProperties,
  {dd97607c-5b28-4d3d-8210-6458185e2995}, !- Handle
  {bb34a0d2-286e-4a73-a70f-759b47bd7f3d}, !- Object Name
  ObjectType,                             !- Feature Name 1
  String,                                 !- Feature Data Type 1
  attic - vented;                         !- Feature Value 1

OS:Space,
  {cda1c072-2076-415c-acca-dcf9d1862831}, !- Handle
  attic - vented 1,                       !- Name
  ,                                       !- Space Type Name
  ,                                       !- Default Construction Set Name
  ,                                       !- Default Schedule Set Name
  ,                                       !- Direction of Relative North {deg}
  ,                                       !- X Origin {m}
  ,                                       !- Y Origin {m}
  ,                                       !- Z Origin {m}
  ,                                       !- Building Story Name
  {bb34a0d2-286e-4a73-a70f-759b47bd7f3d}, !- Thermal Zone Name
  ,                                       !- Part of Total Floor Area
  ,                                       !- Design Specification Outdoor Air Object Name
  ,                                       !- Building Unit Name
  356.389957095237;                       !- Volume {m3}

OS:Material,
  {cd556a1b-7f1a-431c-b607-cd53c88f8246}, !- Handle
  asphalt or fiberglass shingles,         !- Name
  Rough,                                  !- Roughness
  0.00635,                                !- Thickness {m}
  0.162714,                               !- Conductivity {W/m-K}
  1121.4,                                 !- Density {kg/m3}
  1465.45,                                !- Specific Heat {J/kg-K}
  0.9,                                    !- Thermal Absorptance
  0.85,                                   !- Solar Absorptance