
OS:Version,
  {57b34848-70c9-41a9-9cd7-3a1972e89cef}, !- Handle
  3.10.0;                                 !- Version Identifier

OS:SimulationControl,
  {4458b956-6227-4696-a477-adb0796b24b7}, !- Handle
  ,                                       !- Do Zone Sizing Calculation
  ,                                       !- Do System Sizing Calculation
  ,                                       !- Do Plant Sizing Calculation
  No;                                     !- Run Simulation for Sizing Periods

OS:Timestep,
  {bd5efd2e-cbe1-4668-95db-1ee03b8df849}, !- Handle
  1;                                      !- Number of Timesteps per Hour

OS:ShadowCalculation,
  {a2a7bf00-35d6-4581-8603-009396e7cd32}, !- Handle
  PolygonClipping,                        !- Shading Calculation Method
  ,                                       !- Shading Calculation Update Frequency Method
  20,                                     !- Shading Calculation Update Frequency
  200,                                    !- Maximum Figures in Shadow Overlap Calculations
  ,                                       !- Polygon Clipping Algorithm
  512,                                    !- Pixel Counting Resolution
  ,                                       !- Sky Diffuse Modeling Algorithm
  No,                                     !- Output External Shading Calculation Results
  No,                                     !- Disable Self-Shading Within Shading Zone Groups
  No;                                     !- Disable Self-Shading From Shading Zone Groups to Other Zones

OS:SurfaceConvectionAlgorithm:Outside,
  {4d680b59-a6a8-48e5-8003-222e5fe62492}, !- Handle
  DOE-2;                                  !- Algorithm

OS:SurfaceConvectionAlgorithm:Inside,
  {7d9904a2-91d3-49c1-b06f-38dfd5238486}, !- Handle
  TARP;                                   !- Algorithm

OS:ZoneCapacitanceMultiplier:ResearchSpecial,
  {b566e68b-de92-4ab5-ba3d-aedc457c7457}, !- Handle
  7,                                      !- Temperature Capacity Multiplier
  15,                                     !- Humidity Capacity Multiplier
  ;                                       !- Carbon Dioxide Capacity Multiplier

OS:ConvergenceLimits,
  {e5794fb5-eb05-469f-938d-e343b5350e5e}, !- Handle
  0;                                      !- Minimum System Timestep {minutes}

OS:RunPeriod,
  {bb4f6edc-d24c-4375-b43a-ae43863e4e89}, !- Handle
  Run Period 1,                           !- Name
  1,                                      !- Begin Month
  1,                                      !- Begin Day of Month
  12,                                     !- End Month
  31,                                     !- End Day of Month
  ,                                       !- Use Weather File Holidays and Special Days
  ,                                       !- Use Weather File Daylight Saving Period
  ,                                       !- Apply Weekend Holiday Rule
  ,                                       !- Use Weather File Rain Indicators
  ,                                       !- Use Weather File Snow Indicators
  ;                                       !- Number of Times Runperiod to be Repeated

OS:PerformancePrecisionTradeoffs,
  {8dda2812-9747-43dc-a696-e0753cfa720a}, !- Handle
  ,                                       !- Use Coil Direct Solutions
  CarrollMRT;                             !- Zone Radiant Exchange Algorithm

OS:WeatherFile,
  {61d27337-029c-47dc-9e2e-0d42a457baa7}, !- Handle
  Buffalo Niagara Intl Ap,                !- City
  NY,                                     !- State Province Region
  USA,                                    !- Country
  TMY3,                                   !- Data Source
  725280,                                 !- WMO Number
  42.93,                                  !- Latitude {deg}
  -78.73,                                 !- Longitude {deg}
  -5,                                     !- Time Zone {hr}
  215,                                    !- Elevation {m}
  /Users/nmoore/github/urbanopt-example-geojson-project/example_project/weather/USA_NY_Buffalo-Greater.Buffalo.Intl.AP.725280_TMY3.epw, !- Url
  6B50E0FF,                               !- Checksum
  ,                                       !- Start Date Actual Year
  Sunday;                                 !- Start Day of Week

OS:YearDescription,
  {e77983fb-6c0d-48c6-9270-1ef902d2d808}, !- Handle
  2007,                                   !- Calendar Year
  ,                                       !- Day of Week for Start Day
  ;                                       !- Is Leap Year

OS:Site,
  {64b6d5cd-f92d-4904-84e8-ed13ded6ff2d}, !- Handle
  Buffalo Niagara Intl Ap_NY,             !- Name
  42.93,                                  !- Latitude {deg}
  -78.73,                                 !- Longitude {deg}
  -5,                                     !- Time Zone {hr}
  215,                                    !- Elevation {m}
  Suburbs,                                !- Terrain
  Yes;                                    !- Keep Site Location Information

OS:RunPeriodControl:DaylightSavingTime,
  {df2a32b3-efeb-4fc2-9b97-4afe963af393}, !- Handle
  Mar 12,                                 !- Start Date
  Nov 5;                                  !- End Date

OS:Site:GroundTemperature:Shallow,
  {10d48433-a0a8-4c40-84a6-6c4efb91ce37}, !- Handle
  4.30207395723828,                       !- January Surface Ground Temperature {C}
  2.29327249652502,                       !- February Surface Ground Temperature {C}
  2.13240047156047,                       !- March Surface Ground Temperature {C}
  3.08567940719286,                       !- April Surface Ground Temperature {C}
  6.91256312497526,                       !- May Surface Ground Temperature {C}
  10.7216195949507,                       !- June Surface Ground Temperature {C}
  14.0238679822574,                       !- July Surface Ground Temperature {C}
  16.1157611184724,                       !- August Surface Ground Temperature {C}
  16.2934789303462,                       !- September Surface Ground Temperature {C}
  14.5920754632847,                       !- October Surface Ground Temperature {C}
  11.374036348653,                        !- November Surface Ground Temperature {C}
  7.68182621661674;                       !- December Surface Ground Temperature {C}

OS:ThermalZone,
  {9cc42be9-8018-4161-b889-490cd16ae33b}, !- Handle
  conditioned space,                      !- Name
  1,                                      !- Multiplier
  ,                                       !- Ceiling Height {m}
  692.06373070848,                        !- Volume {m3}
  ,                                       !- Floor Area {m2}
  ,                                       !- Zone Inside Convection Algorithm
  ,                                       !- Zone Outside Convection Algorithm
  ,                                       !- Zone Conditioning Equipment List Name
  {13d762ba-4f8b-420e-872a-8484327fcec8}, !- Zone Air Inlet Port List
  {67d65044-7238-49b1-879b-adb5b98c0c16}, !- Zone Air Exhaust Port List
  {cb964968-6ff5-4a34-8f70-09d6f62b44f4}, !- Zone Air Node Name
  {9a74d280-9c9b-497f-bfa0-5f52a80ca40a}, !- Zone Return Air Port List
  ,                                       !- Primary Daylighting Control Name
  ,                                       !- Fraction of Zone Controlled by Primary Daylighting Control
  ,                                       !- Secondary Daylighting Control Name
  ,                                       !- Fraction of Zone Controlled by Secondary Daylighting Control
  ,                                       !- Illuminance Map Name
  ,                                       !- Group Rendering Name
  {d7fc3720-0f6f-402e-b6a7-1904171405b4}, !- Thermostat Name
  No;                                     !- Use Ideal Air Loads

OS:Node,
  {ffa32edd-f19d-419f-91cb-19653ee5a4ba}, !- Handle
  Node 1,                                 !- Name
  {cb964968-6ff5-4a34-8f70-09d6f62b44f4}, !- Inlet Port
  ;                                       !- Outlet Port

OS:Connection,
  {cb964968-6ff5-4a34-8f70-09d6f62b44f4}, !- Handle
  {9cc42be9-8018-4161-b889-490cd16ae33b}, !- Source Object
  11,                                     !- Outlet Port
  {ffa32edd-f19d-419f-91cb-19653ee5a4ba}, !- Target Object
  2;                                      !- Inlet Port

OS:PortList,
  {13d762ba-4f8b-420e-872a-8484327fcec8}, !- Handle
  {9cc42be9-8018-4161-b889-490cd16ae33b}, !- HVAC Component
  {6754aa91-6663-43a7-a10b-556fc647417a}; !- Port 1

OS:PortList,
  {67d65044-7238-49b1-879b-adb5b98c0c16}, !- Handle
  {9cc42be9-8018-4161-b889-490cd16ae33b}; !- HVAC Component

OS:PortList,
  {9a74d280-9c9b-497f-bfa0-5f52a80ca40a}, !- Handle
  {9cc42be9-8018-4161-b889-490cd16ae33b}, !- HVAC Component
  {ea93b103-b599-40ae-8160-efe10b40eb82}; !- Port 1

OS:Sizing:Zone,
  {8667d0a5-c01e-4cfe-9d3f-3f13cce9f4f2}, !- Handle
  {9cc42be9-8018-4161-b889-490cd16ae33b}, !- Zone or ZoneList Name
  SupplyAirTemperature,                   !- Zone Cooling Design Supply Air Temperature Input Method
  14,                                     !- Zone Cooling Design Supply Air Temperature {C}
  11.11,                                  !- Zone Cooling Design Supply Air Temperature Difference {deltaC}
  SupplyAirTemperature,                   !- Zone Heating Design Supply Air Temperature Input Method
  40,                                     !- Zone Heating Design Supply Air Temperature {C}
  11.11,                                  !- Zone Heating Design Supply Air Temperature Difference {deltaC}
  0.0085,                                 !- Zone Cooling Design Supply Air Humidity Ratio {kg-H2O/kg-air}
  0.008,                                  !- Zone Heating Design Supply Air Humidity Ratio {kg-H2O/kg-air}
  ,                                       !- Zone Heating Sizing Factor
  ,                                       !- Zone Cooling Sizing Factor
  DesignDay,                              !- Cooling Design Air Flow Method
  ,                                       !- Cooling Design Air Flow Rate {m3/s}
  ,                                       !- Cooling Minimum Air Flow per Zone Floor Area {m3/s-m2}
  ,                                       !- Cooling Minimum Air Flow {m3/s}
  ,                                       !- Cooling Minimum Air Flow Fraction
  DesignDay,                              !- Heating Design Air Flow Method
  ,                                       !- Heating Design Air Flow Rate {m3/s}
  ,                                       !- Heating Maximum Air Flow per Zone Floor Area {m3/s-m2}
  ,                                       !- Heating Maximum Air Flow {m3/s}
  ,                                       !- Heating Maximum Air Flow Fraction
  No,                                     !- Account for Dedicated Outdoor Air System
  NeutralSupplyAir,                       !- Dedicated Outdoor Air System Control Strategy
  autosize,                               !- Dedicated Outdoor Air Low Setpoint Temperature for Design {C}
  autosize,                               !- Dedicated Outdoor Air High Setpoint Temperature for Design {C}
  Sensible Load Only No Latent Load,      !- Zone Load Sizing Method
  HumidityRatioDifference,                !- Zone Latent Cooling Design Supply Air Humidity Ratio Input Method
  ,                                       !- Zone Dehumidification Design Supply Air Humidity Ratio {kgWater/kgDryAir}
  0.005,                                  !- Zone Cooling Design Supply Air Humidity Ratio Difference {kgWater/kgDryAir}
  HumidityRatioDifference,                !- Zone Latent Heating Design Supply Air Humidity Ratio Input Method
  ,                                       !- Zone Humidification Design Supply Air Humidity Ratio {kgWater/kgDryAir}
  0.005,                                  !- Zone Humidification Design Supply Air Humidity Ratio Difference {kgWater/kgDryAir}
  ,                                       !- Zone Humidistat Dehumidification Set Point Schedule Name
  ,                                       !- Zone Humidistat Humidification Set Point Schedule Name
  ,                                       !- Design Zone Air Distribution Effectiveness in Cooling Mode
  ,                                       !- Design Zone Air Distribution Effectiveness in Heating Mode
  ,                                       !- Design Zone Secondary Recirculation Fraction {dimensionless}
  ,                                       !- Design Minimum Zone Ventilation Efficiency {dimensionless}
  Coincident;                             !- Sizing Option

OS:ZoneHVAC:EquipmentList,
  {3652d3f7-7899-4f4a-bf07-9fd5702bcc05}, !- Handle
  Zone HVAC Equipment List 1,             !- Name
  {9cc42be9-8018-4161-b889-490cd16ae33b}, !- Thermal Zone
  ,                                       !- Load Distribution Scheme
  {bdfe7a2b-90d1-4384-be55-87501b85cbf5}, !- Zone Equipment 1
  1,                                      !- Zone Equipment Cooling Sequence 1
  1,                                      !- Zone Equipment Heating or No-Load Sequence 1
  {e6d316b7-2376-4846-866d-46956b38b5e3}, !- Zone Equipment Sequential Cooling Fraction Schedule Name 1
  {4ad97146-eca8-4f33-9976-3907d5f0e75a}; !- Zone Equipment Sequential Heating Fraction Schedule Name 1

OS:AdditionalProperties,
  {0f9f176c-668d-4206-ab10-47a6c6d09b5c}, !- Handle
  {9cc42be9-8018-4161-b889-490cd16ae33b}, !- Object Name
  ObjectType,                             !- Feature Name 1
  String,                                 !- Feature Data Type 1
  conditioned space;                      !- Feature Value 1

OS:Space,
  {200c2a47-10ea-4aee-976f-cd931b0858a5}, !- Handle
  conditioned space 1,                    !- Name
  ,                                       !- Space Type Name
  ,                                       !- Default Construction Set Name
  ,                                       !- Default Schedule Set Name
  ,                                       !- Direction of Relative North {deg}
  ,                                       !- X Origin {m}
  ,                                       !- Y Origin {m}
  ,                                       !- Z Origin {m}
  ,                                       !- Building Story Name
  {9cc42be9-8018-4161-b889-490cd16ae33b}, !- Thermal Zone Name
  ,                                       !- Part of Total Floor Area
  ,                                       !- Design Specification Outdoor Air Object Name
  ,                                       !- Building Unit Name
  692.06373070848;                        !- Volume {m3}

OS:Schedule:Ruleset,
  {4427cd0a-e39e-407c-a427-54a618921602}, !- Handle
  heating setpoint,                       !- Name
  {ec34e9dc-3db5-47d9-ae87-9720e06bb88c}, !- Schedule Type Limits Name
  {7c045b04-00fc-4aa1-bd07-1c8f7ffa50af}; !- Default Day Schedule Name

OS:Schedule:Day,
  {7c045b04-00fc-4aa1-bd07-1c8f7ffa50af}, !- Handle
  heating setpoint default day,           !- Name
  {ec34e9dc-3db5-47d9-ae87-9720e06bb88c}, !- Schedule Type Limits Name
  ,                                       !- Interpolate to Timestep
  24,                                     !- Hour 1
  0,                                      !- Minute 1
  0;                                      !- Value Until Time 1

OS:Schedule:Rule,
  {0f4833c6-51ff-4543-9a63-5dee1cb8975b}, !- Handle
  heating setpoint allday rule,           !- Name
  {4427cd0a-e39e-407c-a427-54a618921602}, !- Schedule Ruleset Name
  0,                                      !- Rule Order
  {6aa8bb59-9449-4f83-abf1-e83a6ef90f3c}, !- Day Schedule Name
  Yes,                                    !- Apply Sunday
  Yes,                                    !- Apply Monday
  Yes,                                    !- Apply Tuesday
  Yes,                                    !- Apply Wednesday
  Yes,                                    !- Apply Thursday
  Yes,                                    !- Apply Friday
  Yes,                                    !- Apply Saturday
  DateRange,                              !- Date Specification Type
  1,                                      !- Start Month
  1,                                      !- Start Day
  12,                                     !- End Month
  31;                                     !- End Day

OS:Schedule:Day,
  {6aa8bb59-9449-4f83-abf1-e83a6ef90f3c}, !- Handle
  heating setpoint day,                   !- Name
  {ec34e9dc-3db5-47d9-ae87-9720e06bb88c}, !- Schedule Type Limits Name
  ,                                       !- Interpolate to Timestep
  24,                                     !- Hour 1
  0,                                      !- Minute 1
  20;                                     !- Value Until Time 1

OS:Schedule:Ruleset,
  {9bb3c6e9-b7c1-4456-83f0-a4d32a715eea}, !- Handle
  cooling setpoint,                       !- Name
  {ec34e9dc-3db5-47d9-ae87-9720e06bb88c}, !- Schedule Type Limits Name
  {f88dd791-120a-48bc-9d48-546799becba6}; !- Default Day Schedule Name

OS:Schedule:Day,
  {f88dd791-120a-48bc-9d48-546799becba6}, !- Handle
  cooling setpoint default day,           !- Name
  {ec34e9dc-3db5-47d9-ae87-9720e06bb88c}, !- Schedule Type Limits Name
  ,                                       !- Interpolate to Timestep
  24,                                     !- Hour 1
  0,                                      !- Minute 1
  0;                                      !- Value Until Time 1

OS:Schedule:Rule,
  {daf4332f-c6eb-4731-8c41-dc1c12c46ad5}, !- Handle
  cooling setpoint allday rule,           !- Name
  {9bb3c6e9-b7c1-4456-83f0-a4d32a715eea}, !- Schedule Ruleset Name
  0,                                      !- Rule Order
  {6fa83be0-e346-4c2b-8bb6-b8970b0bb722}, !- Day Schedule Name
  Yes,                                    !- Apply Sunday
  Yes,                                    !- Apply Monday
  Yes,                                    !- Apply Tuesday
  Yes,                                    !- Apply Wednesday
  Yes,                                    !- Apply Thursday
  Yes,                                    !- Apply Friday
  Yes,                                    !- Apply Saturday
  DateRange,                              !- Date Specification Type
  1,                                      !- Start Month
  1,                                      !- Start Day
  12,                                     !- End Month
  31;                                     !- End Day

OS:Schedule:Day,
  {6fa83be0-e346-4c2b-8bb6-b8970b0bb722}, !- Handle
  cooling setpoint day,                   !- Name
  {ec34e9dc-3db5-47d9-ae87-9720e06bb88c}, !- Schedule Type Limits Name
  ,                                       !- Interpolate to Timestep
  24,                                     !- Hour 1
  0,                                      !- Minute 1
  25.5555555555556;                       !- Value Until Time 1

OS:ThermostatSetpoint:DualSetpoint,
  {d7fc3720-0f6f-402e-b6a7-1904171405b4}, !- Handle
  conditioned space temperature setpoint, !- Name
  {4427cd0a-e39e-407c-a427-54a618921602}, !- Heating Setpoint Temperature Schedule Name
  {9bb3c6e9-b7c1-4456-83f0-a4d32a715eea}, !- Cooling Setpoint Temperature Schedule Name
  0;                                      !- Temperature Difference Between Cutout And Setpoint {deltaC}

OS:ScheduleTypeLimits,
  {ec34e9dc-3db5-47d9-ae87-9720e06bb88c}, !- Handle
  Temperature,                            !- Name
  ,                                       !- Lower Limit Value
  ,                                       !- Upper Limit Value
  Continuous,                             !- Numeric Type
  Temperature;                            !- Unit Type

OS:Surface,
  {16566713-6c7b-4c3c-b51f-b2b1ab957fbd}, !- Handle
  Roof1,                                  !- Name
  RoofCeiling,                            !- Surface Type
  {5c11f7ae-02dd-44d1-a782-89a9d224ff97}, !- Construction Name
  {56471356-187c-4983-a41e-777090ecabc3}, !- Space Name
  Outdoors,                               !- Outside Boundary Condition
  ,                                       !- Outside Boundary Condition Object
  SunExposed,                             !- Sun Exposure
  WindExposed,                            !- Wind Exposure
  ,                                       !- View Factor to Ground
  ,                                       !- Number of Vertices
  -26.9347048849634, 58.0557891618865, 2.4384, !- X,Y,Z Vertex 1 {m}
  -26.9347048849634, 46.7895631136661, 8.0715130241102, !- X,Y,Z Vertex 2 {m}
  -14.3386812381136, 46.7895631136661, 8.0715130241102, !- X,Y,Z Vertex 3 {m}
  -14.3386812381136, 58.0557891618865, 2.4384; !- X,Y,Z Vertex 4 {m}

OS:AdditionalProperties,
  {05aeb909-a24c-4251-ba20-f7cec8670ae6}, !- Handle
  {16566713-6c7b-4c3c-b51f-b2b1ab957fbd}, !- Object Name
  Length,                                 !- Feature Name 1
  Double,                                 !- Feature Data Type 1
  41.325536899113608,                     !- Feature Value 1
  Width,                                  !- Feature Name 2
  Double,                                 !- Feature Data Type 2
  41.325536899113601,                     !- Feature Value 2
  Azimuth,                                !- Feature Name 3
  Integer,                                !- Feature Data Type 3
  0,                                      !- Feature Value 3
  Tilt,                                   !- Feature Name 4
  Double,                                 !- Feature Data Type 4
  0.5,                                    !- Feature Value 4
  SurfaceType,                            !- Feature Name 5
  String,                                 !- Feature Data Type 5
  Roof;                                   !- Feature Value 5

OS:ThermalZone,
  {ad4078af-0ec7-4398-b856-28ec9f5056a0}, !- Handle
  attic - vented,                         !- Name
  1,                                      !- Multiplier
  ,                                       !- Ceiling Height {m}
  356.390921899745,                       !- Volume {m3}
  ,                                       !- Floor Area {m2}
  ,                                       !- Zone Inside Convection Algorithm
  ,                                       !- Zone Outside Convection Algorithm
  ,                                       !- Zone Conditioning Equipment List Name
  {8a30bae4-186b-4308-8541-3a4b789562da}, !- Zone Air Inlet Port List
  {a94c5b2a-e183-41a3-bde5-601d61e6844d}, !- Zone Air Exhaust Port List
  {2f28be4a-edad-42b6-8ad8-97f880ea3166}, !- Zone Air Node Name
  {48ad9515-6127-4cae-a628-a12a27bb15f2}, !- Zone Return Air Port List
  ,                                       !- Primary Daylighting Control Name
  ,                                       !- Fraction of Zone Controlled by Primary Daylighting Control
  ,                                       !- Secondary Daylighting Control Name
  ,                                       !- Fraction of Zone Controlled by Secondary Daylighting Control
  ,                                       !- Illuminance Map Name
  ,                                       !- Group Rendering Name
  ,                                       !- Thermostat Name
  No;                                     !- Use Ideal Air Loads

OS:Node,
  {eaca2446-eb4f-496e-b3eb-39ee1fddd6e2}, !- Handle
  Node 2,                                 !- Name
  {2f28be4a-edad-42b6-8ad8-97f880ea3166}, !- Inlet Port
  ;                                       !- Outlet Port

OS:Connection,
  {2f28be4a-edad-42b6-8ad8-97f880ea3166}, !- Handle
  {ad4078af-0ec7-4398-b856-28ec9f5056a0}, !- Source Object
  11,                                     !- Outlet Port
  {eaca2446-eb4f-496e-b3eb-39ee1fddd6e2}, !- Target Object
  2;                                      !- Inlet Port

OS:PortList,
  {8a30bae4-186b-4308-8541-3a4b789562da}, !- Handle
  {ad4078af-0ec7-4398-b856-28ec9f5056a0}; !- HVAC Component

OS:PortList,
  {a94c5b2a-e183-41a3-bde5-601d61e6844d}, !- Handle
  {ad4078af-0ec7-4398-b856-28ec9f5056a0}; !- HVAC Component

OS:PortList,
  {48ad9515-6127-4cae-a628-a12a27bb15f2}, !- Handle
  {ad4078af-0ec7-4398-b856-28ec9f5056a0}; !- HVAC Component

OS:Sizing:Zone,
  {3836a22e-59ae-463b-98c6-18bef4d364f7}, !- Handle
  {ad4078af-0ec7-4398-b856-28ec9f5056a0}, !- Zone or ZoneList Name
  SupplyAirTemperature,                   !- Zone Cooling Design Supply Air Temperature Input Method
  14,                                     !- Zone Cooling Design Supply Air Temperature {C}
  11.11,                                  !- Zone Cooling Design Supply Air Temperature Difference {deltaC}
  SupplyAirTemperature,                   !- Zone Heating Design Supply Air Temperature Input Method
  40,                                     !- Zone Heating Design Supply Air Temperature {C}
  11.11,                                  !- Zone Heating Design Supply Air Temperature Difference {deltaC}
  0.0085,                                 !- Zone Cooling Design Supply Air Humidity Ratio {kg-H2O/kg-air}
  0.008,                                  !- Zone Heating Design Supply Air Humidity Ratio {kg-H2O/kg-air}
  ,                                       !- Zone Heating Sizing Factor
  ,                                       !- Zone Cooling Sizing Factor
  DesignDay,                              !- Cooling Design Air Flow Method
  ,                                       !- Cooling Design Air Flow Rate {m3/s}
  ,                                       !- Cooling Minimum Air Flow per Zone Floor Area {m3/s-m2}
  ,                                       !- Cooling Minimum Air Flow {m3/s}
  ,                                       !- Cooling Minimum Air Flow Fraction
  DesignDay,                              !- Heating Design Air Flow Method
  ,                                       !- Heating Design Air Flow Rate {m3/s}
  ,                                       !- Heating Maximum Air Flow per Zone Floor Area {m3/s-m2}
  ,                                       !- Heating Maximum Air Flow {m3/s}
  ,                                       !- Heating Maximum Air Flow Fraction
  No,                                     !- Account for Dedicated Outdoor Air System
  NeutralSupplyAir,                       !- Dedicated Outdoor Air System Control Strategy
  autosize,                               !- Dedicated Outdoor Air Low Setpoint Temperature for Design {C}
  autosize,                               !- Dedicated Outdoor Air High Setpoint Temperature for Design {C}
  Sensible Load Only No Latent Load,      !- Zone Load Sizing Method
  HumidityRatioDifference,                !- Zone Latent Cooling Design Supply Air Humidity Ratio Input Method
  ,                                       !- Zone Dehumidification Design Supply Air Humidity Ratio {kgWater/kgDryAir}
  0.005,                                  !- Zone Cooling Design Supply Air Humidity Ratio Difference {kgWater/kgDryAir}
  HumidityRatioDifference,                !- Zone Latent Heating Design Supply Air Humidity Ratio Input Method
  ,                                       !- Zone Humidification Design Supply Air Humidity Ratio {kgWater/kgDryAir}
  0.005,                                  !- Zone Humidification Design Supply Air Humidity Ratio Difference {kgWater/kgDryAir}
  ,                                       !- Zone Humidistat Dehumidification Set Point Schedule Name
  ,                                       !- Zone Humidistat Humidification Set Point Schedule Name
  ,                                       !- Design Zone Air Distribution Effectiveness in Cooling Mode
  ,                                       !- Design Zone Air Distribution Effectiveness in Heating Mode
  ,                                       !- Design Zone Secondary Recirculation Fraction {dimensionless}
  ,                                       !- Design Minimum Zone Ventilation Efficiency {dimensionless}
  Coincident;                             !- Sizing Option

OS:ZoneHVAC:EquipmentList,
  {d6ca3f54-4366-4c5b-aa85-32d76ccc6d1b}, !- Handle
  Zone HVAC Equipment List 2,             !- Name
  {ad4078af-0ec7-4398-b856-28ec9f5056a0}; !- Thermal Zone

OS:AdditionalProperties,
  {7a3abe86-8e2c-4362-ba17-ce4052fd4419}, !- Handle
  {ad4078af-0ec7-4398-b856-28ec9f5056a0}, !- Object Name
  ObjectType,                             !- Feature Name 1
  String,                                 !- Feature Data Type 1
  attic - vented;                         !- Feature Value 1

OS:Space,
  {56471356-187c-4983-a41e-777090ecabc3}, !- Handle
  attic - vented 1,                       !- Name
  ,                                       !- Space Type Name
  ,                                       !- Default Construction Set Name
  ,                                       !- Default Schedule Set Name
  ,                                       !- Direction of Relative North {deg}
  ,                                       !- X Origin {m}
  ,                                       !- Y Origin {m}
  ,                                       !- Z Origin {m}
  ,                                       !- Building Story Name
  {ad4078af-0ec7-4398-b856-28ec9f5056a0}, !- Thermal Zone Name
  ,                                       !- Part of Total Floor Area
  ,                                       !- Design Specification Outdoor Air Object Name
  ,                                       !- Building Unit Name
  356.390921899745;                       !- Volume {m3}

OS:Material,
  {e9d85e45-3938-4a9b-bcbb-991258939acb}, !- Handle
  asphalt or fiberglass shingles,         !- Name
  Rough,                                  !- Roughness
  0.00635,                                !- Thickness {m}
  0.162714,                               !- Conductivity {W/m-K}
  1121.4,                                 !- Density {kg/m3}
  1465.45,                                !- Specific Heat {J/kg-K}
  0.9,                                    !- Thermal Absorptance
  0.85,                                   !- Solar Absorptance