
OS:Version,
  {a7c3fef7-265b-421c-a20d-4dc81a36e438}, !- Handle
  3.10.0;                                 !- Version Identifier

OS:SimulationControl,
  {78b8f6ac-10cf-4455-8670-53355f0ad85d}, !- Handle
  ,                                       !- Do Zone Sizing Calculation
  ,                                       !- Do System Sizing Calculation
  ,                                       !- Do Plant Sizing Calculation
  No;                                     !- Run Simulation for Sizing Periods

OS:Timestep,
  {62ea89e9-17c3-4b11-bc4d-6999c2daa74b}, !- Handle
  1;                                      !- Number of Timesteps per Hour

OS:ShadowCalculation,
  {1c71c518-c4df-460c-9d82-873e4cbb09df}, !- Handle
  PolygonClipping,                        !- Shading Calculation Method
  ,                                       !- Shading Calculation Update Frequency Method
  20,                                     !- Shading Calculation Update Frequency
  200,                                    !- Maximum Figures in Shadow Overlap Calculations
  ,                                       !- Polygon Clipping Algorithm
  512,                                    !- Pixel Counting Resolution
  ,                                       !- Sky Diffuse Modeling Algorithm
  No,                                     !- Output External Shading Calculation Results
  No,                                     !- Disable Self-Shading Within Shading Zone Groups
  No;                                     !- Disable Self-Shading From Shading Zone Groups to Other Zones

OS:SurfaceConvectionAlgorithm:Outside,
  {4ab637b5-407f-4f99-bb77-4800744b262b}, !- Handle
  DOE-2;                                  !- Algorithm

OS:SurfaceConvectionAlgorithm:Inside,
  {4f417d6c-627d-489a-921f-ac2d9b58848c}, !- Handle
  TARP;                                   !- Algorithm

OS:ZoneCapacitanceMultiplier:ResearchSpecial,
  {0ac6b8de-6c3d-4444-bb29-9fd045b1d170}, !- Handle
  7,                                      !- Temperature Capacity Multiplier
  15,                                     !- Humidity Capacity Multiplier
  ;                                       !- Carbon Dioxide Capacity Multiplier

OS:ConvergenceLimits,
  {26475ee8-9b7c-4081-894b-c36a7d7485aa}, !- Handle
  0;                                      !- Minimum System Timestep {minutes}

OS:RunPeriod,
  {be6c6900-f78f-4ba0-8ffe-e0e24ccc53ed}, !- Handle
  Run Period 1,                           !- Name
  1,                                      !- Begin Month
  1,                                      !- Begin Day of Month
  12,                                     !- End Month
  31,                                     !- End Day of Month
  ,                                       !- Use Weather File Holidays and Special Days
  ,                                       !- Use Weather File Daylight Saving Period
  ,                                       !- Apply Weekend Holiday Rule
  ,                                       !- Use Weather File Rain Indicators
  ,                                       !- Use Weather File Snow Indicators
  ;                                       !- Number of Times Runperiod to be Repeated

OS:PerformancePrecisionTradeoffs,
  {dd969616-12b6-4468-a40f-6ea2c7095315}, !- Handle
  ,                                       !- Use Coil Direct Solutions
  CarrollMRT;                             !- Zone Radiant Exchange Algorithm

OS:WeatherFile,
  {67688197-ebd7-4ad0-a5cf-828ff71b280f}, !- Handle
  Buffalo Niagara Intl Ap,                !- City
  NY,                                     !- State Province Region
  USA,                                    !- Country
  TMY3,                                   !- Data Source
  725280,                                 !- WMO Number
  42.93,                                  !- Latitude {deg}
  -78.73,                                 !- Longitude {deg}
  -5,                                     !- Time Zone {hr}
  215,                                    !- Elevation {m}
  /Users/nmoore/github/urbanopt-example-geojson-project/example_project/weather/USA_NY_Buffalo-Greater.Buffalo.Intl.AP.725280_TMY3.epw, !- Url
  6B50E0FF,                               !- Checksum
  ,                                       !- Start Date Actual Year
  Sunday;                                 !- Start Day of Week

OS:YearDescription,
  {f60d88eb-7738-4b3e-a9b4-d941e7abfecc}, !- Handle
  2007,                                   !- Calendar Year
  ,                                       !- Day of Week for Start Day
  ;                                       !- Is Leap Year

OS:Site,
  {d58c7dbc-83d9-46d4-b38b-26caedeb5f9e}, !- Handle
  Buffalo Niagara Intl Ap_NY,             !- Name
  42.93,                                  !- Latitude {deg}
  -78.73,                                 !- Longitude {deg}
  -5,                                     !- Time Zone {hr}
  215,                                    !- Elevation {m}
  Suburbs,                                !- Terrain
  Yes;                                    !- Keep Site Location Information

OS:RunPeriodControl:DaylightSavingTime,
  {00580d10-5a73-4a7f-9287-2bd9d4a645e8}, !- Handle
  Mar 12,                                 !- Start Date
  Nov 5;                                  !- End Date

OS:Site:GroundTemperature:Shallow,
  {7795dfc2-97c4-446d-9440-60add794412d}, !- Handle
  4.30207395723828,                       !- January Surface Ground Temperature {C}
  2.29327249652502,                       !- February Surface Ground Temperature {C}
  2.13240047156047,                       !- March Surface Ground Temperature {C}
  3.08567940719286,                       !- April Surface Ground Temperature {C}
  6.91256312497526,                       !- May Surface Ground Temperature {C}
  10.7216195949507,                       !- June Surface Ground Temperature {C}
  14.0238679822574,                       !- July Surface Ground Temperature {C}
  16.1157611184724,                       !- August Surface Ground Temperature {C}
  16.2934789303462,                       !- September Surface Ground Temperature {C}
  14.5920754632847,                       !- October Surface Ground Temperature {C}
  11.374036348653,                        !- November Surface Ground Temperature {C}
  7.68182621661674;                       !- December Surface Ground Temperature {C}

OS:ThermalZone,
  {b8ff03cf-2c57-4346-893f-0f00a5ef27c4}, !- Handle
  conditioned space,                      !- Name
  1,                                      !- Multiplier
  ,                                       !- Ceiling Height {m}
  692.06373070848,                        !- Volume {m3}
  ,                                       !- Floor Area {m2}
  ,                                       !- Zone Inside Convection Algorithm
  ,                                       !- Zone Outside Convection Algorithm
  ,                                       !- Zone Conditioning Equipment List Name
  {82aaad46-6990-41e0-ac33-8749ea5e4bfc}, !- Zone Air Inlet Port List
  {bd79a1c5-419d-46be-b473-9111d62359e3}, !- Zone Air Exhaust Port List
  {74410cbc-998c-4833-9e78-6a82132cd439}, !- Zone Air Node Name
  {cdacbfe2-5889-4051-b928-6ab9e3c7d709}, !- Zone Return Air Port List
  ,                                       !- Primary Daylighting Control Name
  ,                                       !- Fraction of Zone Controlled by Primary Daylighting Control
  ,                                       !- Secondary Daylighting Control Name
  ,                                       !- Fraction of Zone Controlled by Secondary Daylighting Control
  ,                                       !- Illuminance Map Name
  ,                                       !- Group Rendering Name
  {2a3d42b6-7da7-47f7-a66c-f74439252f7e}, !- Thermostat Name
  No;                                     !- Use Ideal Air Loads

OS:Node,
  {6435aaa3-0bf9-43e2-8883-b949bbbc2621}, !- Handle
  Node 1,                                 !- Name
  {74410cbc-998c-4833-9e78-6a82132cd439}, !- Inlet Port
  ;                                       !- Outlet Port

OS:Connection,
  {74410cbc-998c-4833-9e78-6a82132cd439}, !- Handle
  {b8ff03cf-2c57-4346-893f-0f00a5ef27c4}, !- Source Object
  11,                                     !- Outlet Port
  {6435aaa3-0bf9-43e2-8883-b949bbbc2621}, !- Target Object
  2;                                      !- Inlet Port

OS:PortList,
  {82aaad46-6990-41e0-ac33-8749ea5e4bfc}, !- Handle
  {b8ff03cf-2c57-4346-893f-0f00a5ef27c4}, !- HVAC Component
  {694d9040-3ffe-4f7d-b848-fa59a0106657}; !- Port 1

OS:PortList,
  {bd79a1c5-419d-46be-b473-9111d62359e3}, !- Handle
  {b8ff03cf-2c57-4346-893f-0f00a5ef27c4}; !- HVAC Component

OS:PortList,
  {cdacbfe2-5889-4051-b928-6ab9e3c7d709}, !- Handle
  {b8ff03cf-2c57-4346-893f-0f00a5ef27c4}, !- HVAC Component
  {593939fa-4917-458f-bf5e-b430c8699fde}; !- Port 1

OS:Sizing:Zone,
  {4dbf12dc-240d-47ff-8dc1-1aab89c56171}, !- Handle
  {b8ff03cf-2c57-4346-893f-0f00a5ef27c4}, !- Zone or ZoneList Name
  SupplyAirTemperature,                   !- Zone Cooling Design Supply Air Temperature Input Method
  14,                                     !- Zone Cooling Design Supply Air Temperature {C}
  11.11,                                  !- Zone Cooling Design Supply Air Temperature Difference {deltaC}
  SupplyAirTemperature,                   !- Zone Heating Design Supply Air Temperature Input Method
  40,                                     !- Zone Heating Design Supply Air Temperature {C}
  11.11,                                  !- Zone Heating Design Supply Air Temperature Difference {deltaC}
  0.0085,                                 !- Zone Cooling Design Supply Air Humidity Ratio {kg-H2O/kg-air}
  0.008,                                  !- Zone Heating Design Supply Air Humidity Ratio {kg-H2O/kg-air}
  ,                                       !- Zone Heating Sizing Factor
  ,                                       !- Zone Cooling Sizing Factor
  DesignDay,                              !- Cooling Design Air Flow Method
  ,                                       !- Cooling Design Air Flow Rate {m3/s}
  ,                                       !- Cooling Minimum Air Flow per Zone Floor Area {m3/s-m2}
  ,                                       !- Cooling Minimum Air Flow {m3/s}
  ,                                       !- Cooling Minimum Air Flow Fraction
  DesignDay,                              !- Heating Design Air Flow Method
  ,                                       !- Heating Design Air Flow Rate {m3/s}
  ,                                       !- Heating Maximum Air Flow per Zone Floor Area {m3/s-m2}
  ,                                       !- Heating Maximum Air Flow {m3/s}
  ,                                       !- Heating Maximum Air Flow Fraction
  No,                                     !- Account for Dedicated Outdoor Air System
  NeutralSupplyAir,                       !- Dedicated Outdoor Air System Control Strategy
  autosize,                               !- Dedicated Outdoor Air Low Setpoint Temperature for Design {C}
  autosize,                               !- Dedicated Outdoor Air High Setpoint Temperature for Design {C}
  Sensible Load Only No Latent Load,      !- Zone Load Sizing Method
  HumidityRatioDifference,                !- Zone Latent Cooling Design Supply Air Humidity Ratio Input Method
  ,                                       !- Zone Dehumidification Design Supply Air Humidity Ratio {kgWater/kgDryAir}
  0.005,                                  !- Zone Cooling Design Supply Air Humidity Ratio Difference {kgWater/kgDryAir}
  HumidityRatioDifference,                !- Zone Latent Heating Design Supply Air Humidity Ratio Input Method
  ,                                       !- Zone Humidification Design Supply Air Humidity Ratio {kgWater/kgDryAir}
  0.005,                                  !- Zone Humidification Design Supply Air Humidity Ratio Difference {kgWater/kgDryAir}
  ,                                       !- Zone Humidistat Dehumidification Set Point Schedule Name
  ,                                       !- Zone Humidistat Humidification Set Point Schedule Name
  ,                                       !- Design Zone Air Distribution Effectiveness in Cooling Mode
  ,                                       !- Design Zone Air Distribution Effectiveness in Heating Mode
  ,                                       !- Design Zone Secondary Recirculation Fraction {dimensionless}
  ,                                       !- Design Minimum Zone Ventilation Efficiency {dimensionless}
  Coincident;                             !- Sizing Option

OS:ZoneHVAC:EquipmentList,
  {9bdff496-857a-4f9f-a78c-8b76e1f251ff}, !- Handle
  Zone HVAC Equipment List 1,             !- Name
  {b8ff03cf-2c57-4346-893f-0f00a5ef27c4}, !- Thermal Zone
  ,                                       !- Load Distribution Scheme
  {a777c772-faca-4e9e-be4f-f3928acb916e}, !- Zone Equipment 1
  1,                                      !- Zone Equipment Cooling Sequence 1
  1,                                      !- Zone Equipment Heating or No-Load Sequence 1
  {5b429ae7-da5b-4435-93e5-5c91add100f3}, !- Zone Equipment Sequential Cooling Fraction Schedule Name 1
  {d9e08a79-6c1e-43a9-9f16-6d1b60cd746d}; !- Zone Equipment Sequential Heating Fraction Schedule Name 1

OS:AdditionalProperties,
  {28ad1079-538d-464f-9e1c-398e251b879f}, !- Handle
  {b8ff03cf-2c57-4346-893f-0f00a5ef27c4}, !- Object Name
  ObjectType,                             !- Feature Name 1
  String,                                 !- Feature Data Type 1
  conditioned space;                      !- Feature Value 1

OS:Space,
  {ad67f9f7-175d-4230-b1b5-d00fb315a85a}, !- Handle
  conditioned space 1,                    !- Name
  ,                                       !- Space Type Name
  ,                                       !- Default Construction Set Name
  ,                                       !- Default Schedule Set Name
  ,                                       !- Direction of Relative North {deg}
  ,                                       !- X Origin {m}
  ,                                       !- Y Origin {m}
  ,                                       !- Z Origin {m}
  ,                                       !- Building Story Name
  {b8ff03cf-2c57-4346-893f-0f00a5ef27c4}, !- Thermal Zone Name
  ,                                       !- Part of Total Floor Area
  ,                                       !- Design Specification Outdoor Air Object Name
  ,                                       !- Building Unit Name
  692.06373070848;                        !- Volume {m3}

OS:Schedule:Ruleset,
  {766af36d-4595-4364-ab61-a9852defca43}, !- Handle
  heating setpoint,                       !- Name
  {f7b18b07-de31-4fcb-bab9-ebfacd43b9a5}, !- Schedule Type Limits Name
  {d94f0fc4-5657-4ec8-b8a1-bd81c372ae83}; !- Default Day Schedule Name

OS:Schedule:Day,
  {d94f0fc4-5657-4ec8-b8a1-bd81c372ae83}, !- Handle
  heating setpoint default day,           !- Name
  {f7b18b07-de31-4fcb-bab9-ebfacd43b9a5}, !- Schedule Type Limits Name
  ,                                       !- Interpolate to Timestep
  24,                                     !- Hour 1
  0,                                      !- Minute 1
  0;                                      !- Value Until Time 1

OS:Schedule:Rule,
  {61055a78-25cd-485a-8eb0-91e18ead83ad}, !- Handle
  heating setpoint allday rule,           !- Name
  {766af36d-4595-4364-ab61-a9852defca43}, !- Schedule Ruleset Name
  0,                                      !- Rule Order
  {d5c39dc5-cc8d-48aa-bae9-0fc5080acba4}, !- Day Schedule Name
  Yes,                                    !- Apply Sunday
  Yes,                                    !- Apply Monday
  Yes,                                    !- Apply Tuesday
  Yes,                                    !- Apply Wednesday
  Yes,                                    !- Apply Thursday
  Yes,                                    !- Apply Friday
  Yes,                                    !- Apply Saturday
  DateRange,                              !- Date Specification Type
  1,                                      !- Start Month
  1,                                      !- Start Day
  12,                                     !- End Month
  31;                                     !- End Day

OS:Schedule:Day,
  {d5c39dc5-cc8d-48aa-bae9-0fc5080acba4}, !- Handle
  heating setpoint day,                   !- Name
  {f7b18b07-de31-4fcb-bab9-ebfacd43b9a5}, !- Schedule Type Limits Name
  ,                                       !- Interpolate to Timestep
  24,                                     !- Hour 1
  0,                                      !- Minute 1
  20;                                     !- Value Until Time 1

OS:Schedule:Ruleset,
  {eaaa2322-619a-4b76-afe3-b9ac9bbb0926}, !- Handle
  cooling setpoint,                       !- Name
  {f7b18b07-de31-4fcb-bab9-ebfacd43b9a5}, !- Schedule Type Limits Name
  {520d0e75-d18a-4577-acab-d8950d001a36}; !- Default Day Schedule Name

OS:Schedule:Day,
  {520d0e75-d18a-4577-acab-d8950d001a36}, !- Handle
  cooling setpoint default day,           !- Name
  {f7b18b07-de31-4fcb-bab9-ebfacd43b9a5}, !- Schedule Type Limits Name
  ,                                       !- Interpolate to Timestep
  24,                                     !- Hour 1
  0,                                      !- Minute 1
  0;                                      !- Value Until Time 1

OS:Schedule:Rule,
  {a6fd9c23-ddbc-45c8-bcba-822fbf7db97e}, !- Handle
  cooling setpoint allday rule,           !- Name
  {eaaa2322-619a-4b76-afe3-b9ac9bbb0926}, !- Schedule Ruleset Name
  0,                                      !- Rule Order
  {5ea730b9-3daf-41f8-b2cd-9ad8464f15e4}, !- Day Schedule Name
  Yes,                                    !- Apply Sunday
  Yes,                                    !- Apply Monday
  Yes,                                    !- Apply Tuesday
  Yes,                                    !- Apply Wednesday
  Yes,                                    !- Apply Thursday
  Yes,                                    !- Apply Friday
  Yes,                                    !- Apply Saturday
  DateRange,                              !- Date Specification Type
  1,                                      !- Start Month
  1,                                      !- Start Day
  12,                                     !- End Month
  31;                                     !- End Day

OS:Schedule:Day,
  {5ea730b9-3daf-41f8-b2cd-9ad8464f15e4}, !- Handle
  cooling setpoint day,                   !- Name
  {f7b18b07-de31-4fcb-bab9-ebfacd43b9a5}, !- Schedule Type Limits Name
  ,                                       !- Interpolate to Timestep
  24,                                     !- Hour 1
  0,                                      !- Minute 1
  25.5555555555556;                       !- Value Until Time 1

OS:ThermostatSetpoint:DualSetpoint,
  {2a3d42b6-7da7-47f7-a66c-f74439252f7e}, !- Handle
  conditioned space temperature setpoint, !- Name
  {766af36d-4595-4364-ab61-a9852defca43}, !- Heating Setpoint Temperature Schedule Name
  {eaaa2322-619a-4b76-afe3-b9ac9bbb0926}, !- Cooling Setpoint Temperature Schedule Name
  0;                                      !- Temperature Difference Between Cutout And Setpoint {deltaC}

OS:ScheduleTypeLimits,
  {f7b18b07-de31-4fcb-bab9-ebfacd43b9a5}, !- Handle
  Temperature,                            !- Name
  ,                                       !- Lower Limit Value
  ,                                       !- Upper Limit Value
  Continuous,                             !- Numeric Type
  Temperature;                            !- Unit Type

OS:Surface,
  {e1cbde0b-76cf-43ae-9b04-fd5e1600128c}, !- Handle
  Roof1,                                  !- Name
  RoofCeiling,                            !- Surface Type
  {697dcded-f0b1-4865-b399-c889ff3d3fc7}, !- Construction Name
  {13b25608-7558-48cc-9368-5b1a6218e4c4}, !- Space Name
  Outdoors,                               !- Outside Boundary Condition
  ,                                       !- Outside Boundary Condition Object
  SunExposed,                             !- Sun Exposure
  WindExposed,                            !- Wind Exposure
  ,                                       !- View Factor to Ground
  ,                                       !- Number of Vertices
  -26.9347048849634, 58.0557891618865, 2.4384, !- X,Y,Z Vertex 1 {m}
  -26.9347048849634, 46.7895631136661, 8.0715130241102, !- X,Y,Z Vertex 2 {m}
  -14.3386812381136, 46.7895631136661, 8.0715130241102, !- X,Y,Z Vertex 3 {m}
  -14.3386812381136, 58.0557891618865, 2.4384; !- X,Y,Z Vertex 4 {m}

OS:AdditionalProperties,
  {28d9cff0-86e6-43f4-851b-5d88a39e68cd}, !- Handle
  {e1cbde0b-76cf-43ae-9b04-fd5e1600128c}, !- Object Name
  Length,                                 !- Feature Name 1
  Double,                                 !- Feature Data Type 1
  41.325536899113608,                     !- Feature Value 1
  Width,                                  !- Feature Name 2
  Double,                                 !- Feature Data Type 2
  41.325536899113601,                     !- Feature Value 2
  Azimuth,                                !- Feature Name 3
  Integer,                                !- Feature Data Type 3
  0,                                      !- Feature Value 3
  Tilt,                                   !- Feature Name 4
  Double,                                 !- Feature Data Type 4
  0.5,                                    !- Feature Value 4
  SurfaceType,                            !- Feature Name 5
  String,                                 !- Feature Data Type 5
  Roof;                                   !- Feature Value 5

OS:ThermalZone,
  {7c73626d-a11c-4acc-b8eb-66a05304f0ad}, !- Handle
  attic - vented,                         !- Name
  1,                                      !- Multiplier
  ,                                       !- Ceiling Height {m}
  356.390921899745,                       !- Volume {m3}
  ,                                       !- Floor Area {m2}
  ,                                       !- Zone Inside Convection Algorithm
  ,                                       !- Zone Outside Convection Algorithm
  ,                                       !- Zone Conditioning Equipment List Name
  {eb2c28e8-13d1-454b-880e-d463ea44bf13}, !- Zone Air Inlet Port List
  {60b6acd6-b906-407f-8123-1cab2c78e271}, !- Zone Air Exhaust Port List
  {5697ef66-892b-4506-8686-cbc6d7c67eca}, !- Zone Air Node Name
  {217716bd-0d6e-4990-9f9a-f739f9697637}, !- Zone Return Air Port List
  ,                                       !- Primary Daylighting Control Name
  ,                                       !- Fraction of Zone Controlled by Primary Daylighting Control
  ,                                       !- Secondary Daylighting Control Name
  ,                                       !- Fraction of Zone Controlled by Secondary Daylighting Control
  ,                                       !- Illuminance Map Name
  ,                                       !- Group Rendering Name
  ,                                       !- Thermostat Name
  No;                                     !- Use Ideal Air Loads

OS:Node,
  {cddeb3d5-1bc4-441e-acdd-1f3cead010b2}, !- Handle
  Node 2,                                 !- Name
  {5697ef66-892b-4506-8686-cbc6d7c67eca}, !- Inlet Port
  ;                                       !- Outlet Port

OS:Connection,
  {5697ef66-892b-4506-8686-cbc6d7c67eca}, !- Handle
  {7c73626d-a11c-4acc-b8eb-66a05304f0ad}, !- Source Object
  11,                                     !- Outlet Port
  {cddeb3d5-1bc4-441e-acdd-1f3cead010b2}, !- Target Object
  2;                                      !- Inlet Port

OS:PortList,
  {eb2c28e8-13d1-454b-880e-d463ea44bf13}, !- Handle
  {7c73626d-a11c-4acc-b8eb-66a05304f0ad}; !- HVAC Component

OS:PortList,
  {60b6acd6-b906-407f-8123-1cab2c78e271}, !- Handle
  {7c73626d-a11c-4acc-b8eb-66a05304f0ad}; !- HVAC Component

OS:PortList,
  {217716bd-0d6e-4990-9f9a-f739f9697637}, !- Handle
  {7c73626d-a11c-4acc-b8eb-66a05304f0ad}; !- HVAC Component

OS:Sizing:Zone,
  {06032db1-76c7-4f04-b81c-1aaaefa7e82a}, !- Handle
  {7c73626d-a11c-4acc-b8eb-66a05304f0ad}, !- Zone or ZoneList Name
  SupplyAirTemperature,                   !- Zone Cooling Design Supply Air Temperature Input Method
  14,                                     !- Zone Cooling Design Supply Air Temperature {C}
  11.11,                                  !- Zone Cooling Design Supply Air Temperature Difference {deltaC}
  SupplyAirTemperature,                   !- Zone Heating Design Supply Air Temperature Input Method
  40,                                     !- Zone Heating Design Supply Air Temperature {C}
  11.11,                                  !- Zone Heating Design Supply Air Temperature Difference {deltaC}
  0.0085,                                 !- Zone Cooling Design Supply Air Humidity Ratio {kg-H2O/kg-air}
  0.008,                                  !- Zone Heating Design Supply Air Humidity Ratio {kg-H2O/kg-air}
  ,                                       !- Zone Heating Sizing Factor
  ,                                       !- Zone Cooling Sizing Factor
  DesignDay,                              !- Cooling Design Air Flow Method
  ,                                       !- Cooling Design Air Flow Rate {m3/s}
  ,                                       !- Cooling Minimum Air Flow per Zone Floor Area {m3/s-m2}
  ,                                       !- Cooling Minimum Air Flow {m3/s}
  ,                                       !- Cooling Minimum Air Flow Fraction
  DesignDay,                              !- Heating Design Air Flow Method
  ,                                       !- Heating Design Air Flow Rate {m3/s}
  ,                                       !- Heating Maximum Air Flow per Zone Floor Area {m3/s-m2}
  ,                                       !- Heating Maximum Air Flow {m3/s}
  ,                                       !- Heating Maximum Air Flow Fraction
  No,                                     !- Account for Dedicated Outdoor Air System
  NeutralSupplyAir,                       !- Dedicated Outdoor Air System Control Strategy
  autosize,                               !- Dedicated Outdoor Air Low Setpoint Temperature for Design {C}
  autosize,                               !- Dedicated Outdoor Air High Setpoint Temperature for Design {C}
  Sensible Load Only No Latent Load,      !- Zone Load Sizing Method
  HumidityRatioDifference,                !- Zone Latent Cooling Design Supply Air Humidity Ratio Input Method
  ,                                       !- Zone Dehumidification Design Supply Air Humidity Ratio {kgWater/kgDryAir}
  0.005,                                  !- Zone Cooling Design Supply Air Humidity Ratio Difference {kgWater/kgDryAir}
  HumidityRatioDifference,                !- Zone Latent Heating Design Supply Air Humidity Ratio Input Method
  ,                                       !- Zone Humidification Design Supply Air Humidity Ratio {kgWater/kgDryAir}
  0.005,                                  !- Zone Humidification Design Supply Air Humidity Ratio Difference {kgWater/kgDryAir}
  ,                                       !- Zone Humidistat Dehumidification Set Point Schedule Name
  ,                                       !- Zone Humidistat Humidification Set Point Schedule Name
  ,                                       !- Design Zone Air Distribution Effectiveness in Cooling Mode
  ,                                       !- Design Zone Air Distribution Effectiveness in Heating Mode
  ,                                       !- Design Zone Secondary Recirculation Fraction {dimensionless}
  ,                                       !- Design Minimum Zone Ventilation Efficiency {dimensionless}
  Coincident;                             !- Sizing Option

OS:ZoneHVAC:EquipmentList,
  {6650da96-975d-48d1-80ca-a0013efdf5c5}, !- Handle
  Zone HVAC Equipment List 2,             !- Name
  {7c73626d-a11c-4acc-b8eb-66a05304f0ad}; !- Thermal Zone

OS:AdditionalProperties,
  {07109ec6-7e90-44ca-8359-5c834b8aa7d5}, !- Handle
  {7c73626d-a11c-4acc-b8eb-66a05304f0ad}, !- Object Name
  ObjectType,                             !- Feature Name 1
  String,                                 !- Feature Data Type 1
  attic - vented;                         !- Feature Value 1

OS:Space,
  {13b25608-7558-48cc-9368-5b1a6218e4c4}, !- Handle
  attic - vented 1,                       !- Name
  ,                                       !- Space Type Name
  ,                                       !- Default Construction Set Name
  ,                                       !- Default Schedule Set Name
  ,                                       !- Direction of Relative North {deg}
  ,                                       !- X Origin {m}
  ,                                       !- Y Origin {m}
  ,                                       !- Z Origin {m}
  ,                                       !- Building Story Name
  {7c73626d-a11c-4acc-b8eb-66a05304f0ad}, !- Thermal Zone Name
  ,                                       !- Part of Total Floor Area
  ,                                       !- Design Specification Outdoor Air Object Name
  ,                                       !- Building Unit Name
  356.390921899745;                       !- Volume {m3}

OS:Material,
  {c99d4ad6-9456-44db-b001-de801b32e523}, !- Handle
  asphalt or fiberglass shingles,         !- Name
  Rough,                                  !- Roughness
  0.00635,                                !- Thickness {m}
  0.162714,                               !- Conductivity {W/m-K}
  1121.4,                                 !- Density {kg/m3}
  1465.45,                                !- Specific Heat {J/kg-K}
  0.9,                                    !- Thermal Absorptance
  0.85,                                   !- Solar Absorptance