
OS:Version,
  {6bd7cc79-b8ba-408c-89a0-879e605fce2a}, !- Handle
  3.9.0;                                  !- Version Identifier

OS:SimulationControl,
  {e31bc62f-1670-4a7c-9e3f-88be6aabd8c3}, !- Handle
  ,                                       !- Do Zone Sizing Calculation
  ,                                       !- Do System Sizing Calculation
  ,                                       !- Do Plant Sizing Calculation
  No;                                     !- Run Simulation for Sizing Periods

OS:Timestep,
  {d86b59e0-3a72-46c9-a63f-865322293ad8}, !- Handle
  1;                                      !- Number of Timesteps per Hour

OS:ShadowCalculation,
  {6b50d77c-42ad-4d34-885d-48f2462a51f5}, !- Handle
  PolygonClipping,                        !- Shading Calculation Method
  ,                                       !- Shading Calculation Update Frequency Method
  20,                                     !- Shading Calculation Update Frequency
  200,                                    !- Maximum Figures in Shadow Overlap Calculations
  ,                                       !- Polygon Clipping Algorithm
  512,                                    !- Pixel Counting Resolution
  ,                                       !- Sky Diffuse Modeling Algorithm
  No,                                     !- Output External Shading Calculation Results
  No,                                     !- Disable Self-Shading Within Shading Zone Groups
  No;                                     !- Disable Self-Shading From Shading Zone Groups to Other Zones

OS:SurfaceConvectionAlgorithm:Outside,
  {a0d0f107-996e-4dca-a724-af5ffc385455}, !- Handle
  DOE-2;                                  !- Algorithm

OS:SurfaceConvectionAlgorithm:Inside,
  {ebd6e757-657f-41da-a111-31771b95bf55}, !- Handle
  TARP;                                   !- Algorithm

OS:ZoneCapacitanceMultiplier:ResearchSpecial,
  {1252e3b7-8d00-4f18-8b28-1676991dbd5d}, !- Handle
  7,                                      !- Temperature Capacity Multiplier
  15,                                     !- Humidity Capacity Multiplier
  ;                                       !- Carbon Dioxide Capacity Multiplier

OS:ConvergenceLimits,
  {a1252fce-6855-4d95-af21-dbd65d1f4b09}, !- Handle
  0;                                      !- Minimum System Timestep {minutes}

OS:RunPeriod,
  {d13c7a50-e177-4452-938c-a1c9e53d181c}, !- Handle
  Run Period 1,                           !- Name
  1,                                      !- Begin Month
  1,                                      !- Begin Day of Month
  12,                                     !- End Month
  31,                                     !- End Day of Month
  ,                                       !- Use Weather File Holidays and Special Days
  ,                                       !- Use Weather File Daylight Saving Period
  ,                                       !- Apply Weekend Holiday Rule
  ,                                       !- Use Weather File Rain Indicators
  ,                                       !- Use Weather File Snow Indicators
  ;                                       !- Number of Times Runperiod to be Repeated

OS:PerformancePrecisionTradeoffs,
  {0a876da2-819c-4d15-9c10-7d4009516887}, !- Handle
  ,                                       !- Use Coil Direct Solutions
  CarrollMRT;                             !- Zone Radiant Exchange Algorithm

OS:WeatherFile,
  {3e4f3891-5a5b-466e-8cce-bf9d55a6d52f}, !- Handle
  Buffalo Niagara Intl Ap,                !- City
  NY,                                     !- State Province Region
  USA,                                    !- Country
  TMY3,                                   !- Data Source
  725280,                                 !- WMO Number
  42.93,                                  !- Latitude {deg}
  -78.73,                                 !- Longitude {deg}
  -5,                                     !- Time Zone {hr}
  215,                                    !- Elevation {m}
  /Users/nmoore/github/urbanopt-example-geojson-project/example_project/weather/USA_NY_Buffalo-Greater.Buffalo.Intl.AP.725280_TMY3.epw, !- Url
  6B50E0FF,                               !- Checksum
  ,                                       !- Start Date Actual Year
  Sunday;                                 !- Start Day of Week

OS:YearDescription,
  {c281e211-d3ce-42fc-bb80-0a45605ef3b9}, !- Handle
  2007,                                   !- Calendar Year
  ,                                       !- Day of Week for Start Day
  ;                                       !- Is Leap Year

OS:Site,
  {671c292c-4ef7-40cc-9a5d-feb2ec3544e1}, !- Handle
  Buffalo Niagara Intl Ap_NY,             !- Name
  42.93,                                  !- Latitude {deg}
  -78.73,                                 !- Longitude {deg}
  -5,                                     !- Time Zone {hr}
  215,                                    !- Elevation {m}
  Suburbs,                                !- Terrain
  Yes;                                    !- Keep Site Location Information

OS:RunPeriodControl:DaylightSavingTime,
  {0a256ffe-0bc7-4c53-b374-1f7de849531d}, !- Handle
  Mar 12,                                 !- Start Date
  Nov 5;                                  !- End Date

OS:Site:GroundTemperature:Shallow,
  {5b3b408d-6b8a-4545-a0a0-71d2a50fdab5}, !- Handle
  4.30207395723828,                       !- January Surface Ground Temperature {C}
  2.29327249652502,                       !- February Surface Ground Temperature {C}
  2.13240047156047,                       !- March Surface Ground Temperature {C}
  3.08567940719286,                       !- April Surface Ground Temperature {C}
  6.91256312497526,                       !- May Surface Ground Temperature {C}
  10.7216195949507,                       !- June Surface Ground Temperature {C}
  14.0238679822574,                       !- July Surface Ground Temperature {C}
  16.1157611184724,                       !- August Surface Ground Temperature {C}
  16.2934789303462,                       !- September Surface Ground Temperature {C}
  14.5920754632847,                       !- October Surface Ground Temperature {C}
  11.374036348653,                        !- November Surface Ground Temperature {C}
  7.68182621661674;                       !- December Surface Ground Temperature {C}

OS:ThermalZone,
  {8280a276-b42e-4da7-af23-0d7851083c91}, !- Handle
  conditioned space,                      !- Name
  1,                                      !- Multiplier
  ,                                       !- Ceiling Height {m}
  692.06373070848,                        !- Volume {m3}
  ,                                       !- Floor Area {m2}
  ,                                       !- Zone Inside Convection Algorithm
  ,                                       !- Zone Outside Convection Algorithm
  ,                                       !- Zone Conditioning Equipment List Name
  {74c8bce5-7076-4496-ac97-66b867adbb0e}, !- Zone Air Inlet Port List
  {90530449-a2dd-4e07-aa9d-5fbfa8d98711}, !- Zone Air Exhaust Port List
  {f11456fd-2102-4168-936c-201076c74a68}, !- Zone Air Node Name
  {332dc51a-4967-4454-bbcb-ac25ff52d5e1}, !- Zone Return Air Port List
  ,                                       !- Primary Daylighting Control Name
  ,                                       !- Fraction of Zone Controlled by Primary Daylighting Control
  ,                                       !- Secondary Daylighting Control Name
  ,                                       !- Fraction of Zone Controlled by Secondary Daylighting Control
  ,                                       !- Illuminance Map Name
  ,                                       !- Group Rendering Name
  {d198982d-2509-49fc-8ddb-e0e949682bd5}, !- Thermostat Name
  No;                                     !- Use Ideal Air Loads

OS:Node,
  {fbc96f01-263b-470a-97b7-0b1c66fec9e1}, !- Handle
  Node 1,                                 !- Name
  {f11456fd-2102-4168-936c-201076c74a68}, !- Inlet Port
  ;                                       !- Outlet Port

OS:Connection,
  {f11456fd-2102-4168-936c-201076c74a68}, !- Handle
  {8280a276-b42e-4da7-af23-0d7851083c91}, !- Source Object
  11,                                     !- Outlet Port
  {fbc96f01-263b-470a-97b7-0b1c66fec9e1}, !- Target Object
  2;                                      !- Inlet Port

OS:PortList,
  {74c8bce5-7076-4496-ac97-66b867adbb0e}, !- Handle
  {8280a276-b42e-4da7-af23-0d7851083c91}, !- HVAC Component
  {e1087ffa-6fe5-4dba-b3a4-0eb9e048b6e4}; !- Port 1

OS:PortList,
  {90530449-a2dd-4e07-aa9d-5fbfa8d98711}, !- Handle
  {8280a276-b42e-4da7-af23-0d7851083c91}; !- HVAC Component

OS:PortList,
  {332dc51a-4967-4454-bbcb-ac25ff52d5e1}, !- Handle
  {8280a276-b42e-4da7-af23-0d7851083c91}, !- HVAC Component
  {d835cdbe-0939-4afb-adb2-589e6bce7bea}; !- Port 1

OS:Sizing:Zone,
  {f9c628c2-46f5-48b6-a804-6aab68daf917}, !- Handle
  {8280a276-b42e-4da7-af23-0d7851083c91}, !- Zone or ZoneList Name
  SupplyAirTemperature,                   !- Zone Cooling Design Supply Air Temperature Input Method
  14,                                     !- Zone Cooling Design Supply Air Temperature {C}
  11.11,                                  !- Zone Cooling Design Supply Air Temperature Difference {deltaC}
  SupplyAirTemperature,                   !- Zone Heating Design Supply Air Temperature Input Method
  40,                                     !- Zone Heating Design Supply Air Temperature {C}
  11.11,                                  !- Zone Heating Design Supply Air Temperature Difference {deltaC}
  0.0085,                                 !- Zone Cooling Design Supply Air Humidity Ratio {kg-H2O/kg-air}
  0.008,                                  !- Zone Heating Design Supply Air Humidity Ratio {kg-H2O/kg-air}
  ,                                       !- Zone Heating Sizing Factor
  ,                                       !- Zone Cooling Sizing Factor
  DesignDay,                              !- Cooling Design Air Flow Method
  ,                                       !- Cooling Design Air Flow Rate {m3/s}
  ,                                       !- Cooling Minimum Air Flow per Zone Floor Area {m3/s-m2}
  ,                                       !- Cooling Minimum Air Flow {m3/s}
  ,                                       !- Cooling Minimum Air Flow Fraction
  DesignDay,                              !- Heating Design Air Flow Method
  ,                                       !- Heating Design Air Flow Rate {m3/s}
  ,                                       !- Heating Maximum Air Flow per Zone Floor Area {m3/s-m2}
  ,                                       !- Heating Maximum Air Flow {m3/s}
  ,                                       !- Heating Maximum Air Flow Fraction
  No,                                     !- Account for Dedicated Outdoor Air System
  NeutralSupplyAir,                       !- Dedicated Outdoor Air System Control Strategy
  autosize,                               !- Dedicated Outdoor Air Low Setpoint Temperature for Design {C}
  autosize,                               !- Dedicated Outdoor Air High Setpoint Temperature for Design {C}
  Sensible Load Only No Latent Load,      !- Zone Load Sizing Method
  HumidityRatioDifference,                !- Zone Latent Cooling Design Supply Air Humidity Ratio Input Method
  ,                                       !- Zone Dehumidification Design Supply Air Humidity Ratio {kgWater/kgDryAir}
  0.005,                                  !- Zone Cooling Design Supply Air Humidity Ratio Difference {kgWater/kgDryAir}
  HumidityRatioDifference,                !- Zone Latent Heating Design Supply Air Humidity Ratio Input Method
  ,                                       !- Zone Humidification Design Supply Air Humidity Ratio {kgWater/kgDryAir}
  0.005,                                  !- Zone Humidification Design Supply Air Humidity Ratio Difference {kgWater/kgDryAir}
  ,                                       !- Zone Humidistat Dehumidification Set Point Schedule Name
  ,                                       !- Zone Humidistat Humidification Set Point Schedule Name
  ,                                       !- Design Zone Air Distribution Effectiveness in Cooling Mode
  ,                                       !- Design Zone Air Distribution Effectiveness in Heating Mode
  ,                                       !- Design Zone Secondary Recirculation Fraction {dimensionless}
  ,                                       !- Design Minimum Zone Ventilation Efficiency {dimensionless}
  Coincident;                             !- Sizing Option

OS:ZoneHVAC:EquipmentList,
  {e05193ea-97bc-43f4-a3ab-8507fbd2cd02}, !- Handle
  Zone HVAC Equipment List 1,             !- Name
  {8280a276-b42e-4da7-af23-0d7851083c91}, !- Thermal Zone
  ,                                       !- Load Distribution Scheme
  {e48c0019-911c-4896-9ea2-52143b834c25}, !- Zone Equipment 1
  1,                                      !- Zone Equipment Cooling Sequence 1
  1,                                      !- Zone Equipment Heating or No-Load Sequence 1
  {546b60a1-ca49-4b3f-bddf-22b97e111f6d}, !- Zone Equipment Sequential Cooling Fraction Schedule Name 1
  {5ae7d52b-a85c-4693-83b4-0ffab564676c}; !- Zone Equipment Sequential Heating Fraction Schedule Name 1

OS:AdditionalProperties,
  {1ef59f52-60b9-4b43-b664-b3fb80b28d17}, !- Handle
  {8280a276-b42e-4da7-af23-0d7851083c91}, !- Object Name
  ObjectType,                             !- Feature Name 1
  String,                                 !- Feature Data Type 1
  conditioned space;                      !- Feature Value 1

OS:Space,
  {f40cec13-9e40-4858-8bec-2c59dc9c7a0c}, !- Handle
  conditioned space 1,                    !- Name
  ,                                       !- Space Type Name
  ,                                       !- Default Construction Set Name
  ,                                       !- Default Schedule Set Name
  ,                                       !- Direction of Relative North {deg}
  ,                                       !- X Origin {m}
  ,                                       !- Y Origin {m}
  ,                                       !- Z Origin {m}
  ,                                       !- Building Story Name
  {8280a276-b42e-4da7-af23-0d7851083c91}, !- Thermal Zone Name
  ,                                       !- Part of Total Floor Area
  ,                                       !- Design Specification Outdoor Air Object Name
  ,                                       !- Building Unit Name
  692.06373070848;                        !- Volume {m3}

OS:Schedule:Ruleset,
  {b67153da-7010-46cc-a133-f5bce1fdab4e}, !- Handle
  heating setpoint,                       !- Name
  {36c3b135-4a4e-4546-a065-1149ed3b0885}, !- Schedule Type Limits Name
  {c2916d85-84dc-47ba-9f10-639dd5d25ef0}; !- Default Day Schedule Name

OS:Schedule:Day,
  {c2916d85-84dc-47ba-9f10-639dd5d25ef0}, !- Handle
  heating setpoint default day,           !- Name
  {36c3b135-4a4e-4546-a065-1149ed3b0885}, !- Schedule Type Limits Name
  ,                                       !- Interpolate to Timestep
  24,                                     !- Hour 1
  0,                                      !- Minute 1
  0;                                      !- Value Until Time 1

OS:Schedule:Rule,
  {fc7262c8-721f-4b3a-b73b-04477f6f4476}, !- Handle
  heating setpoint allday rule,           !- Name
  {b67153da-7010-46cc-a133-f5bce1fdab4e}, !- Schedule Ruleset Name
  0,                                      !- Rule Order
  {6b860283-7f24-4fcd-b512-d8f07e678f6b}, !- Day Schedule Name
  Yes,                                    !- Apply Sunday
  Yes,                                    !- Apply Monday
  Yes,                                    !- Apply Tuesday
  Yes,                                    !- Apply Wednesday
  Yes,                                    !- Apply Thursday
  Yes,                                    !- Apply Friday
  Yes,                                    !- Apply Saturday
  DateRange,                              !- Date Specification Type
  1,                                      !- Start Month
  1,                                      !- Start Day
  12,                                     !- End Month
  31;                                     !- End Day

OS:Schedule:Day,
  {6b860283-7f24-4fcd-b512-d8f07e678f6b}, !- Handle
  heating setpoint day,                   !- Name
  {36c3b135-4a4e-4546-a065-1149ed3b0885}, !- Schedule Type Limits Name
  ,                                       !- Interpolate to Timestep
  24,                                     !- Hour 1
  0,                                      !- Minute 1
  20;                                     !- Value Until Time 1

OS:Schedule:Ruleset,
  {33396089-7c3a-41c8-b7b9-c5a80f7334c4}, !- Handle
  cooling setpoint,                       !- Name
  {36c3b135-4a4e-4546-a065-1149ed3b0885}, !- Schedule Type Limits Name
  {dd9e1dd8-9034-4873-99b6-a538b2fbebce}; !- Default Day Schedule Name

OS:Schedule:Day,
  {dd9e1dd8-9034-4873-99b6-a538b2fbebce}, !- Handle
  cooling setpoint default day,           !- Name
  {36c3b135-4a4e-4546-a065-1149ed3b0885}, !- Schedule Type Limits Name
  ,                                       !- Interpolate to Timestep
  24,                                     !- Hour 1
  0,                                      !- Minute 1
  0;                                      !- Value Until Time 1

OS:Schedule:Rule,
  {f47c2664-bebb-4a23-bcdc-25d480792e63}, !- Handle
  cooling setpoint allday rule,           !- Name
  {33396089-7c3a-41c8-b7b9-c5a80f7334c4}, !- Schedule Ruleset Name
  0,                                      !- Rule Order
  {bffed2ce-4f4b-46d0-a508-8b388287f5cf}, !- Day Schedule Name
  Yes,                                    !- Apply Sunday
  Yes,                                    !- Apply Monday
  Yes,                                    !- Apply Tuesday
  Yes,                                    !- Apply Wednesday
  Yes,                                    !- Apply Thursday
  Yes,                                    !- Apply Friday
  Yes,                                    !- Apply Saturday
  DateRange,                              !- Date Specification Type
  1,                                      !- Start Month
  1,                                      !- Start Day
  12,                                     !- End Month
  31;                                     !- End Day

OS:Schedule:Day,
  {bffed2ce-4f4b-46d0-a508-8b388287f5cf}, !- Handle
  cooling setpoint day,                   !- Name
  {36c3b135-4a4e-4546-a065-1149ed3b0885}, !- Schedule Type Limits Name
  ,                                       !- Interpolate to Timestep
  24,                                     !- Hour 1
  0,                                      !- Minute 1
  25.5555555555556;                       !- Value Until Time 1

OS:ThermostatSetpoint:DualSetpoint,
  {d198982d-2509-49fc-8ddb-e0e949682bd5}, !- Handle
  conditioned space temperature setpoint, !- Name
  {b67153da-7010-46cc-a133-f5bce1fdab4e}, !- Heating Setpoint Temperature Schedule Name
  {33396089-7c3a-41c8-b7b9-c5a80f7334c4}, !- Cooling Setpoint Temperature Schedule Name
  0;                                      !- Temperature Difference Between Cutout And Setpoint {deltaC}

OS:ScheduleTypeLimits,
  {36c3b135-4a4e-4546-a065-1149ed3b0885}, !- Handle
  Temperature,                            !- Name
  ,                                       !- Lower Limit Value
  ,                                       !- Upper Limit Value
  Continuous,                             !- Numeric Type
  Temperature;                            !- Unit Type

OS:Surface,
  {24eb1d51-1656-442e-96fb-6dd7042e23e2}, !- Handle
  Roof1,                                  !- Name
  RoofCeiling,                            !- Surface Type
  {ab1f4b8d-b709-403f-af08-61d18cbbea98}, !- Construction Name
  {bb7c031c-80b6-447b-974f-f190246ed22d}, !- Space Name
  Outdoors,                               !- Outside Boundary Condition
  ,                                       !- Outside Boundary Condition Object
  SunExposed,                             !- Sun Exposure
  WindExposed,                            !- Wind Exposure
  ,                                       !- View Factor to Ground
  ,                                       !- Number of Vertices
  -26.9347048849634, 58.0557891618865, 2.4384, !- X,Y,Z Vertex 1 {m}
  -26.9347048849634, 46.7895631136661, 8.0715130241102, !- X,Y,Z Vertex 2 {m}
  -14.3386812381136, 46.7895631136661, 8.0715130241102, !- X,Y,Z Vertex 3 {m}
  -14.3386812381136, 58.0557891618865, 2.4384; !- X,Y,Z Vertex 4 {m}

OS:AdditionalProperties,
  {4fd5b2a9-5ec4-496f-b547-6a486e44d1f4}, !- Handle
  {24eb1d51-1656-442e-96fb-6dd7042e23e2}, !- Object Name
  Length,                                 !- Feature Name 1
  Double,                                 !- Feature Data Type 1
  41.325536899113608,                     !- Feature Value 1
  Width,                                  !- Feature Name 2
  Double,                                 !- Feature Data Type 2
  41.325536899113601,                     !- Feature Value 2
  Azimuth,                                !- Feature Name 3
  Integer,                                !- Feature Data Type 3
  0,                                      !- Feature Value 3
  Tilt,                                   !- Feature Name 4
  Double,                                 !- Feature Data Type 4
  0.5,                                    !- Feature Value 4
  SurfaceType,                            !- Feature Name 5
  String,                                 !- Feature Data Type 5
  Roof;                                   !- Feature Value 5

OS:ThermalZone,
  {19f2bb8b-6ec5-4fda-b046-6fa0e3d73acb}, !- Handle
  attic - vented,                         !- Name
  1,                                      !- Multiplier
  ,                                       !- Ceiling Height {m}
  356.389957095237,                       !- Volume {m3}
  ,                                       !- Floor Area {m2}
  ,                                       !- Zone Inside Convection Algorithm
  ,                                       !- Zone Outside Convection Algorithm
  ,                                       !- Zone Conditioning Equipment List Name
  {eb91d7b9-0431-4f48-a5a3-b5ca697b0e58}, !- Zone Air Inlet Port List
  {f09c2fcf-0a99-40a9-bfab-30fe487ae614}, !- Zone Air Exhaust Port List
  {27cbdfe6-2298-4a74-9b1d-7f6053a59b07}, !- Zone Air Node Name
  {3d6afb8f-aca3-4e67-b7c2-066556349710}, !- Zone Return Air Port List
  ,                                       !- Primary Daylighting Control Name
  ,                                       !- Fraction of Zone Controlled by Primary Daylighting Control
  ,                                       !- Secondary Daylighting Control Name
  ,                                       !- Fraction of Zone Controlled by Secondary Daylighting Control
  ,                                       !- Illuminance Map Name
  ,                                       !- Group Rendering Name
  ,                                       !- Thermostat Name
  No;                                     !- Use Ideal Air Loads

OS:Node,
  {599fb4b2-278c-4c76-8b93-41f8102a3841}, !- Handle
  Node 2,                                 !- Name
  {27cbdfe6-2298-4a74-9b1d-7f6053a59b07}, !- Inlet Port
  ;                                       !- Outlet Port

OS:Connection,
  {27cbdfe6-2298-4a74-9b1d-7f6053a59b07}, !- Handle
  {19f2bb8b-6ec5-4fda-b046-6fa0e3d73acb}, !- Source Object
  11,                                     !- Outlet Port
  {599fb4b2-278c-4c76-8b93-41f8102a3841}, !- Target Object
  2;                                      !- Inlet Port

OS:PortList,
  {eb91d7b9-0431-4f48-a5a3-b5ca697b0e58}, !- Handle
  {19f2bb8b-6ec5-4fda-b046-6fa0e3d73acb}; !- HVAC Component

OS:PortList,
  {f09c2fcf-0a99-40a9-bfab-30fe487ae614}, !- Handle
  {19f2bb8b-6ec5-4fda-b046-6fa0e3d73acb}; !- HVAC Component

OS:PortList,
  {3d6afb8f-aca3-4e67-b7c2-066556349710}, !- Handle
  {19f2bb8b-6ec5-4fda-b046-6fa0e3d73acb}; !- HVAC Component

OS:Sizing:Zone,
  {5f09662c-6a02-4385-ae72-08e799d07bd8}, !- Handle
  {19f2bb8b-6ec5-4fda-b046-6fa0e3d73acb}, !- Zone or ZoneList Name
  SupplyAirTemperature,                   !- Zone Cooling Design Supply Air Temperature Input Method
  14,                                     !- Zone Cooling Design Supply Air Temperature {C}
  11.11,                                  !- Zone Cooling Design Supply Air Temperature Difference {deltaC}
  SupplyAirTemperature,                   !- Zone Heating Design Supply Air Temperature Input Method
  40,                                     !- Zone Heating Design Supply Air Temperature {C}
  11.11,                                  !- Zone Heating Design Supply Air Temperature Difference {deltaC}
  0.0085,                                 !- Zone Cooling Design Supply Air Humidity Ratio {kg-H2O/kg-air}
  0.008,                                  !- Zone Heating Design Supply Air Humidity Ratio {kg-H2O/kg-air}
  ,                                       !- Zone Heating Sizing Factor
  ,                                       !- Zone Cooling Sizing Factor
  DesignDay,                              !- Cooling Design Air Flow Method
  ,                                       !- Cooling Design Air Flow Rate {m3/s}
  ,                                       !- Cooling Minimum Air Flow per Zone Floor Area {m3/s-m2}
  ,                                       !- Cooling Minimum Air Flow {m3/s}
  ,                                       !- Cooling Minimum Air Flow Fraction
  DesignDay,                              !- Heating Design Air Flow Method
  ,                                       !- Heating Design Air Flow Rate {m3/s}
  ,                                       !- Heating Maximum Air Flow per Zone Floor Area {m3/s-m2}
  ,                                       !- Heating Maximum Air Flow {m3/s}
  ,                                       !- Heating Maximum Air Flow Fraction
  No,                                     !- Account for Dedicated Outdoor Air System
  NeutralSupplyAir,                       !- Dedicated Outdoor Air System Control Strategy
  autosize,                               !- Dedicated Outdoor Air Low Setpoint Temperature for Design {C}
  autosize,                               !- Dedicated Outdoor Air High Setpoint Temperature for Design {C}
  Sensible Load Only No Latent Load,      !- Zone Load Sizing Method
  HumidityRatioDifference,                !- Zone Latent Cooling Design Supply Air Humidity Ratio Input Method
  ,                                       !- Zone Dehumidification Design Supply Air Humidity Ratio {kgWater/kgDryAir}
  0.005,                                  !- Zone Cooling Design Supply Air Humidity Ratio Difference {kgWater/kgDryAir}
  HumidityRatioDifference,                !- Zone Latent Heating Design Supply Air Humidity Ratio Input Method
  ,                                       !- Zone Humidification Design Supply Air Humidity Ratio {kgWater/kgDryAir}
  0.005,                                  !- Zone Humidification Design Supply Air Humidity Ratio Difference {kgWater/kgDryAir}
  ,                                       !- Zone Humidistat Dehumidification Set Point Schedule Name
  ,                                       !- Zone Humidistat Humidification Set Point Schedule Name
  ,                                       !- Design Zone Air Distribution Effectiveness in Cooling Mode
  ,                                       !- Design Zone Air Distribution Effectiveness in Heating Mode
  ,                                       !- Design Zone Secondary Recirculation Fraction {dimensionless}
  ,                                       !- Design Minimum Zone Ventilation Efficiency {dimensionless}
  Coincident;                             !- Sizing Option

OS:ZoneHVAC:EquipmentList,
  {1eb9cbd9-751f-4de2-9a3a-76411715bb61}, !- Handle
  Zone HVAC Equipment List 2,             !- Name
  {19f2bb8b-6ec5-4fda-b046-6fa0e3d73acb}; !- Thermal Zone

OS:AdditionalProperties,
  {55f318a2-1567-4649-8e5c-c1899945995c}, !- Handle
  {19f2bb8b-6ec5-4fda-b046-6fa0e3d73acb}, !- Object Name
  ObjectType,                             !- Feature Name 1
  String,                                 !- Feature Data Type 1
  attic - vented;                         !- Feature Value 1

OS:Space,
  {bb7c031c-80b6-447b-974f-f190246ed22d}, !- Handle
  attic - vented 1,                       !- Name
  ,                                       !- Space Type Name
  ,                                       !- Default Construction Set Name
  ,                                       !- Default Schedule Set Name
  ,                                       !- Direction of Relative North {deg}
  ,                                       !- X Origin {m}
  ,                                       !- Y Origin {m}
  ,                                       !- Z Origin {m}
  ,                                       !- Building Story Name
  {19f2bb8b-6ec5-4fda-b046-6fa0e3d73acb}, !- Thermal Zone Name
  ,                                       !- Part of Total Floor Area
  ,                                       !- Design Specification Outdoor Air Object Name
  ,                                       !- Building Unit Name
  356.389957095237;                       !- Volume {m3}

OS:Material,
  {bac8f82a-7b6e-406a-8594-c10c7490dc8d}, !- Handle
  asphalt or fiberglass shingles,         !- Name
  Rough,                                  !- Roughness
  0.00635,                                !- Thickness {m}
  0.162714,                               !- Conductivity {W/m-K}
  1121.4,                                 !- Density {kg/m3}
  1465.45,                                !- Specific Heat {J/kg-K}
  0.9,                                    !- Thermal Absorptance
  0.85,                                   !- Solar Absorptance