
OS:Version,
  {2968074f-d975-4ede-be33-b3b07cb43d5a}, !- Handle
  3.9.0;                                  !- Version Identifier

OS:SimulationControl,
  {d671e5e5-4296-421d-9dd1-226ca5ea32dc}, !- Handle
  ,                                       !- Do Zone Sizing Calculation
  ,                                       !- Do System Sizing Calculation
  ,                                       !- Do Plant Sizing Calculation
  No;                                     !- Run Simulation for Sizing Periods

OS:Timestep,
  {2de306d0-d0e7-4155-a8da-2787dda77483}, !- Handle
  1;                                      !- Number of Timesteps per Hour

OS:ShadowCalculation,
  {ec5a57c2-91f5-465c-b804-ec5dd06103f9}, !- Handle
  PolygonClipping,                        !- Shading Calculation Method
  ,                                       !- Shading Calculation Update Frequency Method
  20,                                     !- Shading Calculation Update Frequency
  200,                                    !- Maximum Figures in Shadow Overlap Calculations
  ,                                       !- Polygon Clipping Algorithm
  512,                                    !- Pixel Counting Resolution
  ,                                       !- Sky Diffuse Modeling Algorithm
  No,                                     !- Output External Shading Calculation Results
  No,                                     !- Disable Self-Shading Within Shading Zone Groups
  No;                                     !- Disable Self-Shading From Shading Zone Groups to Other Zones

OS:SurfaceConvectionAlgorithm:Outside,
  {26ed2404-b774-448f-bf11-581aa3f74de6}, !- Handle
  DOE-2;                                  !- Algorithm

OS:SurfaceConvectionAlgorithm:Inside,
  {6459df72-9285-43e9-b631-e35605bf1562}, !- Handle
  TARP;                                   !- Algorithm

OS:ZoneCapacitanceMultiplier:ResearchSpecial,
  {cfeaa496-eb89-4d81-adbc-68b1098fba44}, !- Handle
  7,                                      !- Temperature Capacity Multiplier
  15,                                     !- Humidity Capacity Multiplier
  ;                                       !- Carbon Dioxide Capacity Multiplier

OS:ConvergenceLimits,
  {cd5f7a7d-20a7-4a70-9bf9-2394d1c0fa03}, !- Handle
  0;                                      !- Minimum System Timestep {minutes}

OS:RunPeriod,
  {96d797b1-d4f1-4835-b81b-7157bccc01f6}, !- Handle
  Run Period 1,                           !- Name
  1,                                      !- Begin Month
  1,                                      !- Begin Day of Month
  12,                                     !- End Month
  31,                                     !- End Day of Month
  ,                                       !- Use Weather File Holidays and Special Days
  ,                                       !- Use Weather File Daylight Saving Period
  ,                                       !- Apply Weekend Holiday Rule
  ,                                       !- Use Weather File Rain Indicators
  ,                                       !- Use Weather File Snow Indicators
  ;                                       !- Number of Times Runperiod to be Repeated

OS:PerformancePrecisionTradeoffs,
  {eabd471d-33d1-431f-ae68-ba9d1441990b}, !- Handle
  ,                                       !- Use Coil Direct Solutions
  CarrollMRT;                             !- Zone Radiant Exchange Algorithm

OS:WeatherFile,
  {f160bdda-f340-4432-ac67-7e2b6de426a0}, !- Handle
  Buffalo Niagara Intl Ap,                !- City
  NY,                                     !- State Province Region
  USA,                                    !- Country
  TMY3,                                   !- Data Source
  725280,                                 !- WMO Number
  42.93,                                  !- Latitude {deg}
  -78.73,                                 !- Longitude {deg}
  -5,                                     !- Time Zone {hr}
  215,                                    !- Elevation {m}
  /Users/nmoore/github/urbanopt-example-geojson-project/example_project/weather/USA_NY_Buffalo-Greater.Buffalo.Intl.AP.725280_TMY3.epw, !- Url
  6B50E0FF,                               !- Checksum
  ,                                       !- Start Date Actual Year
  Sunday;                                 !- Start Day of Week

OS:YearDescription,
  {e7e45de8-ddbe-40c9-b175-cc1737ae27b4}, !- Handle
  2007,                                   !- Calendar Year
  ,                                       !- Day of Week for Start Day
  ;                                       !- Is Leap Year

OS:Site,
  {54318f25-25b8-4e2d-88f1-88085157240e}, !- Handle
  Buffalo Niagara Intl Ap_NY,             !- Name
  42.93,                                  !- Latitude {deg}
  -78.73,                                 !- Longitude {deg}
  -5,                                     !- Time Zone {hr}
  215,                                    !- Elevation {m}
  Suburbs,                                !- Terrain
  Yes;                                    !- Keep Site Location Information

OS:RunPeriodControl:DaylightSavingTime,
  {8dcf7a07-8d95-454b-9785-d16e0e610bca}, !- Handle
  Mar 12,                                 !- Start Date
  Nov 5;                                  !- End Date

OS:Site:GroundTemperature:Shallow,
  {bc6de21d-46f9-4a97-a1b1-e797ce847f2f}, !- Handle
  4.30207395723828,                       !- January Surface Ground Temperature {C}
  2.29327249652502,                       !- February Surface Ground Temperature {C}
  2.13240047156047,                       !- March Surface Ground Temperature {C}
  3.08567940719286,                       !- April Surface Ground Temperature {C}
  6.91256312497526,                       !- May Surface Ground Temperature {C}
  10.7216195949507,                       !- June Surface Ground Temperature {C}
  14.0238679822574,                       !- July Surface Ground Temperature {C}
  16.1157611184724,                       !- August Surface Ground Temperature {C}
  16.2934789303462,                       !- September Surface Ground Temperature {C}
  14.5920754632847,                       !- October Surface Ground Temperature {C}
  11.374036348653,                        !- November Surface Ground Temperature {C}
  7.68182621661674;                       !- December Surface Ground Temperature {C}

OS:ThermalZone,
  {436a5195-72eb-4b9b-b6d9-f47d51c0287f}, !- Handle
  conditioned space,                      !- Name
  1,                                      !- Multiplier
  ,                                       !- Ceiling Height {m}
  692.06373070848,                        !- Volume {m3}
  ,                                       !- Floor Area {m2}
  ,                                       !- Zone Inside Convection Algorithm
  ,                                       !- Zone Outside Convection Algorithm
  ,                                       !- Zone Conditioning Equipment List Name
  {60b2bec8-f214-4a4a-ab69-42a3e5445cbe}, !- Zone Air Inlet Port List
  {05b1c982-965d-43cb-b358-bcd6fe949d2d}, !- Zone Air Exhaust Port List
  {14e3c14b-1e83-40ba-b930-024bad9c6cc3}, !- Zone Air Node Name
  {a26b4f11-312c-4ee7-9268-5b8ed5ee5b3f}, !- Zone Return Air Port List
  ,                                       !- Primary Daylighting Control Name
  ,                                       !- Fraction of Zone Controlled by Primary Daylighting Control
  ,                                       !- Secondary Daylighting Control Name
  ,                                       !- Fraction of Zone Controlled by Secondary Daylighting Control
  ,                                       !- Illuminance Map Name
  ,                                       !- Group Rendering Name
  {fb305650-587b-4426-80ca-50aab5c97f4e}, !- Thermostat Name
  No;                                     !- Use Ideal Air Loads

OS:Node,
  {3fc498a3-a970-4043-b59b-fadec194c64e}, !- Handle
  Node 1,                                 !- Name
  {14e3c14b-1e83-40ba-b930-024bad9c6cc3}, !- Inlet Port
  ;                                       !- Outlet Port

OS:Connection,
  {14e3c14b-1e83-40ba-b930-024bad9c6cc3}, !- Handle
  {436a5195-72eb-4b9b-b6d9-f47d51c0287f}, !- Source Object
  11,                                     !- Outlet Port
  {3fc498a3-a970-4043-b59b-fadec194c64e}, !- Target Object
  2;                                      !- Inlet Port

OS:PortList,
  {60b2bec8-f214-4a4a-ab69-42a3e5445cbe}, !- Handle
  {436a5195-72eb-4b9b-b6d9-f47d51c0287f}, !- HVAC Component
  {03151e50-fb87-4eee-bbb8-a3983baed7e0}; !- Port 1

OS:PortList,
  {05b1c982-965d-43cb-b358-bcd6fe949d2d}, !- Handle
  {436a5195-72eb-4b9b-b6d9-f47d51c0287f}; !- HVAC Component

OS:PortList,
  {a26b4f11-312c-4ee7-9268-5b8ed5ee5b3f}, !- Handle
  {436a5195-72eb-4b9b-b6d9-f47d51c0287f}, !- HVAC Component
  {a0d159c3-c27d-4f65-a249-6cb91c429867}; !- Port 1

OS:Sizing:Zone,
  {7d8f79e8-6429-48f6-b9eb-5b964f0d4672}, !- Handle
  {436a5195-72eb-4b9b-b6d9-f47d51c0287f}, !- Zone or ZoneList Name
  SupplyAirTemperature,                   !- Zone Cooling Design Supply Air Temperature Input Method
  14,                                     !- Zone Cooling Design Supply Air Temperature {C}
  11.11,                                  !- Zone Cooling Design Supply Air Temperature Difference {deltaC}
  SupplyAirTemperature,                   !- Zone Heating Design Supply Air Temperature Input Method
  40,                                     !- Zone Heating Design Supply Air Temperature {C}
  11.11,                                  !- Zone Heating Design Supply Air Temperature Difference {deltaC}
  0.0085,                                 !- Zone Cooling Design Supply Air Humidity Ratio {kg-H2O/kg-air}
  0.008,                                  !- Zone Heating Design Supply Air Humidity Ratio {kg-H2O/kg-air}
  ,                                       !- Zone Heating Sizing Factor
  ,                                       !- Zone Cooling Sizing Factor
  DesignDay,                              !- Cooling Design Air Flow Method
  ,                                       !- Cooling Design Air Flow Rate {m3/s}
  ,                                       !- Cooling Minimum Air Flow per Zone Floor Area {m3/s-m2}
  ,                                       !- Cooling Minimum Air Flow {m3/s}
  ,                                       !- Cooling Minimum Air Flow Fraction
  DesignDay,                              !- Heating Design Air Flow Method
  ,                                       !- Heating Design Air Flow Rate {m3/s}
  ,                                       !- Heating Maximum Air Flow per Zone Floor Area {m3/s-m2}
  ,                                       !- Heating Maximum Air Flow {m3/s}
  ,                                       !- Heating Maximum Air Flow Fraction
  No,                                     !- Account for Dedicated Outdoor Air System
  NeutralSupplyAir,                       !- Dedicated Outdoor Air System Control Strategy
  autosize,                               !- Dedicated Outdoor Air Low Setpoint Temperature for Design {C}
  autosize,                               !- Dedicated Outdoor Air High Setpoint Temperature for Design {C}
  Sensible Load Only No Latent Load,      !- Zone Load Sizing Method
  HumidityRatioDifference,                !- Zone Latent Cooling Design Supply Air Humidity Ratio Input Method
  ,                                       !- Zone Dehumidification Design Supply Air Humidity Ratio {kgWater/kgDryAir}
  0.005,                                  !- Zone Cooling Design Supply Air Humidity Ratio Difference {kgWater/kgDryAir}
  HumidityRatioDifference,                !- Zone Latent Heating Design Supply Air Humidity Ratio Input Method
  ,                                       !- Zone Humidification Design Supply Air Humidity Ratio {kgWater/kgDryAir}
  0.005,                                  !- Zone Humidification Design Supply Air Humidity Ratio Difference {kgWater/kgDryAir}
  ,                                       !- Zone Humidistat Dehumidification Set Point Schedule Name
  ,                                       !- Zone Humidistat Humidification Set Point Schedule Name
  ,                                       !- Design Zone Air Distribution Effectiveness in Cooling Mode
  ,                                       !- Design Zone Air Distribution Effectiveness in Heating Mode
  ,                                       !- Design Zone Secondary Recirculation Fraction {dimensionless}
  ,                                       !- Design Minimum Zone Ventilation Efficiency {dimensionless}
  Coincident;                             !- Sizing Option

OS:ZoneHVAC:EquipmentList,
  {363bf330-f6a6-484e-bab8-e3c8ea245284}, !- Handle
  Zone HVAC Equipment List 1,             !- Name
  {436a5195-72eb-4b9b-b6d9-f47d51c0287f}, !- Thermal Zone
  ,                                       !- Load Distribution Scheme
  {88cd8d23-3aad-454f-bf8e-f2078e78bfa5}, !- Zone Equipment 1
  1,                                      !- Zone Equipment Cooling Sequence 1
  1,                                      !- Zone Equipment Heating or No-Load Sequence 1
  {082f34fd-c19a-4501-8bcd-c76cb4068443}, !- Zone Equipment Sequential Cooling Fraction Schedule Name 1
  {a51b4cbc-d25e-4e8f-9dfa-7ba14ad122c8}, !- Zone Equipment Sequential Heating Fraction Schedule Name 1
  {613d6259-9882-409e-a3ec-445d3d79b7c0}, !- Zone Equipment 2
  2,                                      !- Zone Equipment Cooling Sequence 2
  2,                                      !- Zone Equipment Heating or No-Load Sequence 2
  {22860e88-b93e-4cc4-8f24-4549c562e8c9}, !- Zone Equipment Sequential Cooling Fraction Schedule Name 2
  {81dae1fa-1fd3-4dfa-b3b0-a2617fb987e2}; !- Zone Equipment Sequential Heating Fraction Schedule Name 2

OS:AdditionalProperties,
  {0b7cfcd5-a5c2-4fb1-9214-ac4df3283ff1}, !- Handle
  {436a5195-72eb-4b9b-b6d9-f47d51c0287f}, !- Object Name
  ObjectType,                             !- Feature Name 1
  String,                                 !- Feature Data Type 1
  conditioned space;                      !- Feature Value 1

OS:Space,
  {ded10013-f907-457e-a051-d5f9d58172d7}, !- Handle
  conditioned space 1,                    !- Name
  ,                                       !- Space Type Name
  ,                                       !- Default Construction Set Name
  ,                                       !- Default Schedule Set Name
  ,                                       !- Direction of Relative North {deg}
  ,                                       !- X Origin {m}
  ,                                       !- Y Origin {m}
  ,                                       !- Z Origin {m}
  ,                                       !- Building Story Name
  {436a5195-72eb-4b9b-b6d9-f47d51c0287f}, !- Thermal Zone Name
  ,                                       !- Part of Total Floor Area
  ,                                       !- Design Specification Outdoor Air Object Name
  ,                                       !- Building Unit Name
  692.06373070848;                        !- Volume {m3}

OS:Schedule:Ruleset,
  {95bdc8db-1024-4fbc-96f5-be93690469e0}, !- Handle
  heating setpoint,                       !- Name
  {453ee493-9359-4121-a965-d84aff3cfb99}, !- Schedule Type Limits Name
  {a68810bb-8f50-4fb7-b632-5354f9ebe140}; !- Default Day Schedule Name

OS:Schedule:Day,
  {a68810bb-8f50-4fb7-b632-5354f9ebe140}, !- Handle
  heating setpoint default day,           !- Name
  {453ee493-9359-4121-a965-d84aff3cfb99}, !- Schedule Type Limits Name
  ,                                       !- Interpolate to Timestep
  24,                                     !- Hour 1
  0,                                      !- Minute 1
  0;                                      !- Value Until Time 1

OS:Schedule:Rule,
  {8a9ab52b-a0da-47f5-8e4e-384794a519ac}, !- Handle
  heating setpoint allday rule,           !- Name
  {95bdc8db-1024-4fbc-96f5-be93690469e0}, !- Schedule Ruleset Name
  0,                                      !- Rule Order
  {471af055-6711-4e3f-8170-6cb049a14179}, !- Day Schedule Name
  Yes,                                    !- Apply Sunday
  Yes,                                    !- Apply Monday
  Yes,                                    !- Apply Tuesday
  Yes,                                    !- Apply Wednesday
  Yes,                                    !- Apply Thursday
  Yes,                                    !- Apply Friday
  Yes,                                    !- Apply Saturday
  DateRange,                              !- Date Specification Type
  1,                                      !- Start Month
  1,                                      !- Start Day
  12,                                     !- End Month
  31;                                     !- End Day

OS:Schedule:Day,
  {471af055-6711-4e3f-8170-6cb049a14179}, !- Handle
  heating setpoint day,                   !- Name
  {453ee493-9359-4121-a965-d84aff3cfb99}, !- Schedule Type Limits Name
  ,                                       !- Interpolate to Timestep
  24,                                     !- Hour 1
  0,                                      !- Minute 1
  20;                                     !- Value Until Time 1

OS:Schedule:Ruleset,
  {e36e54f9-9317-4dc5-b590-650a9cc010cc}, !- Handle
  cooling setpoint,                       !- Name
  {453ee493-9359-4121-a965-d84aff3cfb99}, !- Schedule Type Limits Name
  {cf516c76-f196-471a-a2ef-bef7d5a456ea}; !- Default Day Schedule Name

OS:Schedule:Day,
  {cf516c76-f196-471a-a2ef-bef7d5a456ea}, !- Handle
  cooling setpoint default day,           !- Name
  {453ee493-9359-4121-a965-d84aff3cfb99}, !- Schedule Type Limits Name
  ,                                       !- Interpolate to Timestep
  24,                                     !- Hour 1
  0,                                      !- Minute 1
  0;                                      !- Value Until Time 1

OS:Schedule:Rule,
  {62fcc988-5a96-46cc-9ef3-c16404182370}, !- Handle
  cooling setpoint allday rule,           !- Name
  {e36e54f9-9317-4dc5-b590-650a9cc010cc}, !- Schedule Ruleset Name
  0,                                      !- Rule Order
  {77cdd75c-1c94-4dd3-ae8b-567b9a77f2f0}, !- Day Schedule Name
  Yes,                                    !- Apply Sunday
  Yes,                                    !- Apply Monday
  Yes,                                    !- Apply Tuesday
  Yes,                                    !- Apply Wednesday
  Yes,                                    !- Apply Thursday
  Yes,                                    !- Apply Friday
  Yes,                                    !- Apply Saturday
  DateRange,                              !- Date Specification Type
  1,                                      !- Start Month
  1,                                      !- Start Day
  12,                                     !- End Month
  31;                                     !- End Day

OS:Schedule:Day,
  {77cdd75c-1c94-4dd3-ae8b-567b9a77f2f0}, !- Handle
  cooling setpoint day,                   !- Name
  {453ee493-9359-4121-a965-d84aff3cfb99}, !- Schedule Type Limits Name
  ,                                       !- Interpolate to Timestep
  24,                                     !- Hour 1
  0,                                      !- Minute 1
  25.5555555555556;                       !- Value Until Time 1

OS:ThermostatSetpoint:DualSetpoint,
  {fb305650-587b-4426-80ca-50aab5c97f4e}, !- Handle
  conditioned space temperature setpoint, !- Name
  {95bdc8db-1024-4fbc-96f5-be93690469e0}, !- Heating Setpoint Temperature Schedule Name
  {e36e54f9-9317-4dc5-b590-650a9cc010cc}, !- Cooling Setpoint Temperature Schedule Name
  0;                                      !- Temperature Difference Between Cutout And Setpoint {deltaC}

OS:ScheduleTypeLimits,
  {453ee493-9359-4121-a965-d84aff3cfb99}, !- Handle
  Temperature,                            !- Name
  ,                                       !- Lower Limit Value
  ,                                       !- Upper Limit Value
  Continuous,                             !- Numeric Type
  Temperature;                            !- Unit Type

OS:Surface,
  {00c01b56-cbe7-4c93-b2e0-945b4fd052dd}, !- Handle
  Roof1,                                  !- Name
  RoofCeiling,                            !- Surface Type
  {30e089fd-40c2-4ae6-8e7e-10fffecd5b57}, !- Construction Name
  {6c251dda-6087-46ee-84a2-3bf1a60b2d02}, !- Space Name
  Outdoors,                               !- Outside Boundary Condition
  ,                                       !- Outside Boundary Condition Object
  SunExposed,                             !- Sun Exposure
  WindExposed,                            !- Wind Exposure
  ,                                       !- View Factor to Ground
  ,                                       !- Number of Vertices
  -26.9347048849634, 58.0557891618865, 2.4384, !- X,Y,Z Vertex 1 {m}
  -26.9347048849634, 46.7895631136661, 8.0715130241102, !- X,Y,Z Vertex 2 {m}
  -14.3386812381136, 46.7895631136661, 8.0715130241102, !- X,Y,Z Vertex 3 {m}
  -14.3386812381136, 58.0557891618865, 2.4384; !- X,Y,Z Vertex 4 {m}

OS:AdditionalProperties,
  {e8470399-747e-4c1f-a6dc-5e42fddf4f58}, !- Handle
  {00c01b56-cbe7-4c93-b2e0-945b4fd052dd}, !- Object Name
  Length,                                 !- Feature Name 1
  Double,                                 !- Feature Data Type 1
  41.325536899113608,                     !- Feature Value 1
  Width,                                  !- Feature Name 2
  Double,                                 !- Feature Data Type 2
  41.325536899113601,                     !- Feature Value 2
  Azimuth,                                !- Feature Name 3
  Integer,                                !- Feature Data Type 3
  0,                                      !- Feature Value 3
  Tilt,                                   !- Feature Name 4
  Double,                                 !- Feature Data Type 4
  0.5,                                    !- Feature Value 4
  SurfaceType,                            !- Feature Name 5
  String,                                 !- Feature Data Type 5
  Roof;                                   !- Feature Value 5

OS:ThermalZone,
  {3e1df530-033f-4032-be56-f881d40c3d01}, !- Handle
  attic - vented,                         !- Name
  1,                                      !- Multiplier
  ,                                       !- Ceiling Height {m}
  356.389957095237,                       !- Volume {m3}
  ,                                       !- Floor Area {m2}
  ,                                       !- Zone Inside Convection Algorithm
  ,                                       !- Zone Outside Convection Algorithm
  ,                                       !- Zone Conditioning Equipment List Name
  {0a5e8423-9111-43f5-9b42-3b20d110e190}, !- Zone Air Inlet Port List
  {4ace92cf-2e58-4501-8763-c1f78f61c5bd}, !- Zone Air Exhaust Port List
  {80ef4722-ae5c-4bed-87ab-389d42d1f40e}, !- Zone Air Node Name
  {31a78ac9-0610-43ae-9b76-bc34549f658f}, !- Zone Return Air Port List
  ,                                       !- Primary Daylighting Control Name
  ,                                       !- Fraction of Zone Controlled by Primary Daylighting Control
  ,                                       !- Secondary Daylighting Control Name
  ,                                       !- Fraction of Zone Controlled by Secondary Daylighting Control
  ,                                       !- Illuminance Map Name
  ,                                       !- Group Rendering Name
  ,                                       !- Thermostat Name
  No;                                     !- Use Ideal Air Loads

OS:Node,
  {d7009434-991c-4a7d-94d6-ccde8b00c1c5}, !- Handle
  Node 2,                                 !- Name
  {80ef4722-ae5c-4bed-87ab-389d42d1f40e}, !- Inlet Port
  ;                                       !- Outlet Port

OS:Connection,
  {80ef4722-ae5c-4bed-87ab-389d42d1f40e}, !- Handle
  {3e1df530-033f-4032-be56-f881d40c3d01}, !- Source Object
  11,                                     !- Outlet Port
  {d7009434-991c-4a7d-94d6-ccde8b00c1c5}, !- Target Object
  2;                                      !- Inlet Port

OS:PortList,
  {0a5e8423-9111-43f5-9b42-3b20d110e190}, !- Handle
  {3e1df530-033f-4032-be56-f881d40c3d01}; !- HVAC Component

OS:PortList,
  {4ace92cf-2e58-4501-8763-c1f78f61c5bd}, !- Handle
  {3e1df530-033f-4032-be56-f881d40c3d01}; !- HVAC Component

OS:PortList,
  {31a78ac9-0610-43ae-9b76-bc34549f658f}, !- Handle
  {3e1df530-033f-4032-be56-f881d40c3d01}; !- HVAC Component

OS:Sizing:Zone,
  {e618ce28-d6b8-4912-a9e2-1ea8dc8ce326}, !- Handle
  {3e1df530-033f-4032-be56-f881d40c3d01}, !- Zone or ZoneList Name
  SupplyAirTemperature,                   !- Zone Cooling Design Supply Air Temperature Input Method
  14,                                     !- Zone Cooling Design Supply Air Temperature {C}
  11.11,                                  !- Zone Cooling Design Supply Air Temperature Difference {deltaC}
  SupplyAirTemperature,                   !- Zone Heating Design Supply Air Temperature Input Method
  40,                                     !- Zone Heating Design Supply Air Temperature {C}
  11.11,                                  !- Zone Heating Design Supply Air Temperature Difference {deltaC}
  0.0085,                                 !- Zone Cooling Design Supply Air Humidity Ratio {kg-H2O/kg-air}
  0.008,                                  !- Zone Heating Design Supply Air Humidity Ratio {kg-H2O/kg-air}
  ,                                       !- Zone Heating Sizing Factor
  ,                                       !- Zone Cooling Sizing Factor
  DesignDay,                              !- Cooling Design Air Flow Method
  ,                                       !- Cooling Design Air Flow Rate {m3/s}
  ,                                       !- Cooling Minimum Air Flow per Zone Floor Area {m3/s-m2}
  ,                                       !- Cooling Minimum Air Flow {m3/s}
  ,                                       !- Cooling Minimum Air Flow Fraction
  DesignDay,                              !- Heating Design Air Flow Method
  ,                                       !- Heating Design Air Flow Rate {m3/s}
  ,                                       !- Heating Maximum Air Flow per Zone Floor Area {m3/s-m2}
  ,                                       !- Heating Maximum Air Flow {m3/s}
  ,                                       !- Heating Maximum Air Flow Fraction
  No,                                     !- Account for Dedicated Outdoor Air System
  NeutralSupplyAir,                       !- Dedicated Outdoor Air System Control Strategy
  autosize,                               !- Dedicated Outdoor Air Low Setpoint Temperature for Design {C}
  autosize,                               !- Dedicated Outdoor Air High Setpoint Temperature for Design {C}
  Sensible Load Only No Latent Load,      !- Zone Load Sizing Method
  HumidityRatioDifference,                !- Zone Latent Cooling Design Supply Air Humidity Ratio Input Method
  ,                                       !- Zone Dehumidification Design Supply Air Humidity Ratio {kgWater/kgDryAir}
  0.005,                                  !- Zone Cooling Design Supply Air Humidity Ratio Difference {kgWater/kgDryAir}
  HumidityRatioDifference,                !- Zone Latent Heating Design Supply Air Humidity Ratio Input Method
  ,                                       !- Zone Humidification Design Supply Air Humidity Ratio {kgWater/kgDryAir}
  0.005,                                  !- Zone Humidification Design Supply Air Humidity Ratio Difference {kgWater/kgDryAir}
  ,                                       !- Zone Humidistat Dehumidification Set Point Schedule Name
  ,                                       !- Zone Humidistat Humidification Set Point Schedule Name
  ,                                       !- Design Zone Air Distribution Effectiveness in Cooling Mode
  ,                                       !- Design Zone Air Distribution Effectiveness in Heating Mode
  ,                                       !- Design Zone Secondary Recirculation Fraction {dimensionless}
  ,                                       !- Design Minimum Zone Ventilation Efficiency {dimensionless}
  Coincident;                             !- Sizing Option

OS:ZoneHVAC:EquipmentList,
  {a051a7bc-d713-4dbd-8582-2113003c666c}, !- Handle
  Zone HVAC Equipment List 2,             !- Name
  {3e1df530-033f-4032-be56-f881d40c3d01}; !- Thermal Zone

OS:AdditionalProperties,
  {2e2dca90-b62b-4971-aa04-60ab01c1d6a4}, !- Handle
  {3e1df530-033f-4032-be56-f881d40c3d01}, !- Object Name
  ObjectType,                             !- Feature Name 1
  String,                                 !- Feature Data Type 1
  attic - vented;                         !- Feature Value 1

OS:Space,
  {6c251dda-6087-46ee-84a2-3bf1a60b2d02}, !- Handle
  attic - vented 1,                       !- Name
  ,                                       !- Space Type Name
  ,                                       !- Default Construction Set Name
  ,                                       !- Default Schedule Set Name
  ,                                       !- Direction of Relative North {deg}
  ,                                       !- X Origin {m}
  ,                                       !- Y Origin {m}
  ,                                       !- Z Origin {m}
  ,                                       !- Building Story Name
  {3e1df530-033f-4032-be56-f881d40c3d01}, !- Thermal Zone Name
  ,                                       !- Part of Total Floor Area
  ,                                       !- Design Specification Outdoor Air Object Name
  ,                                       !- Building Unit Name
  356.389957095237;                       !- Volume {m3}

OS:Material,
  {47f0881d-d37f-48c0-8f1e-0312e71eb0d1}, !- Handle
  asphalt or fiberglass shingles,         !- Name