
OS:Version,
  {c1622856-c422-4f31-9972-976edecbf1ad}, !- Handle
  3.10.0;                                 !- Version Identifier

OS:SimulationControl,
  {663c1aa4-cf28-4b08-ba53-41cb210b97e9}, !- Handle
  ,                                       !- Do Zone Sizing Calculation
  ,                                       !- Do System Sizing Calculation
  ,                                       !- Do Plant Sizing Calculation
  No;                                     !- Run Simulation for Sizing Periods

OS:Timestep,
  {2ab16f05-ba9c-4a9d-9ea9-76764d8c12e3}, !- Handle
  1;                                      !- Number of Timesteps per Hour

OS:ShadowCalculation,
  {04fefde7-3668-47ea-9553-c2230a109675}, !- Handle
  PolygonClipping,                        !- Shading Calculation Method
  ,                                       !- Shading Calculation Update Frequency Method
  20,                                     !- Shading Calculation Update Frequency
  200,                                    !- Maximum Figures in Shadow Overlap Calculations
  ,                                       !- Polygon Clipping Algorithm
  512,                                    !- Pixel Counting Resolution
  ,                                       !- Sky Diffuse Modeling Algorithm
  No,                                     !- Output External Shading Calculation Results
  No,                                     !- Disable Self-Shading Within Shading Zone Groups
  No;                                     !- Disable Self-Shading From Shading Zone Groups to Other Zones

OS:SurfaceConvectionAlgorithm:Outside,
  {bb1339a0-3bd7-4b58-840a-73bf4dac0b86}, !- Handle
  DOE-2;                                  !- Algorithm

OS:SurfaceConvectionAlgorithm:Inside,
  {4f4ddad8-93d7-46c9-9a3c-fb3ebfdf9eeb}, !- Handle
  TARP;                                   !- Algorithm

OS:ZoneCapacitanceMultiplier:ResearchSpecial,
  {bcdbd312-3987-4e16-a6a0-3ce63bfa0412}, !- Handle
  7,                                      !- Temperature Capacity Multiplier
  15,                                     !- Humidity Capacity Multiplier
  ;                                       !- Carbon Dioxide Capacity Multiplier

OS:ConvergenceLimits,
  {217bcb74-7d2c-4b9d-aa91-44cf891bc4d5}, !- Handle
  0;                                      !- Minimum System Timestep {minutes}

OS:RunPeriod,
  {ad8f526b-0314-42a6-98ba-90f2581d3cef}, !- Handle
  Run Period 1,                           !- Name
  1,                                      !- Begin Month
  1,                                      !- Begin Day of Month
  12,                                     !- End Month
  31,                                     !- End Day of Month
  ,                                       !- Use Weather File Holidays and Special Days
  ,                                       !- Use Weather File Daylight Saving Period
  ,                                       !- Apply Weekend Holiday Rule
  ,                                       !- Use Weather File Rain Indicators
  ,                                       !- Use Weather File Snow Indicators
  ;                                       !- Number of Times Runperiod to be Repeated

OS:PerformancePrecisionTradeoffs,
  {9d7cd75e-cede-4096-bf31-0b4741590a68}, !- Handle
  ,                                       !- Use Coil Direct Solutions
  CarrollMRT;                             !- Zone Radiant Exchange Algorithm

OS:WeatherFile,
  {e1331c97-6cfb-4011-9fe2-aface28e7d24}, !- Handle
  Buffalo Niagara Intl Ap,                !- City
  NY,                                     !- State Province Region
  USA,                                    !- Country
  TMY3,                                   !- Data Source
  725280,                                 !- WMO Number
  42.93,                                  !- Latitude {deg}
  -78.73,                                 !- Longitude {deg}
  -5,                                     !- Time Zone {hr}
  215,                                    !- Elevation {m}
  /Users/nmoore/github/urbanopt-example-geojson-project/example_project/weather/USA_NY_Buffalo-Greater.Buffalo.Intl.AP.725280_TMY3.epw, !- Url
  6B50E0FF,                               !- Checksum
  ,                                       !- Start Date Actual Year
  Sunday;                                 !- Start Day of Week

OS:YearDescription,
  {aaa5d535-e918-4111-ab69-9d943f4792ce}, !- Handle
  2007,                                   !- Calendar Year
  ,                                       !- Day of Week for Start Day
  ;                                       !- Is Leap Year

OS:Site,
  {59e374f8-1c62-41c2-9d24-262c06590983}, !- Handle
  Buffalo Niagara Intl Ap_NY,             !- Name
  42.93,                                  !- Latitude {deg}
  -78.73,                                 !- Longitude {deg}
  -5,                                     !- Time Zone {hr}
  215,                                    !- Elevation {m}
  Suburbs,                                !- Terrain
  Yes;                                    !- Keep Site Location Information

OS:RunPeriodControl:DaylightSavingTime,
  {a1c5471a-7308-4e67-8e19-26e0234d9edd}, !- Handle
  Mar 12,                                 !- Start Date
  Nov 5;                                  !- End Date

OS:Site:GroundTemperature:Shallow,
  {a89edd83-ff84-48a8-8258-ca667c97e795}, !- Handle
  4.30207395723828,                       !- January Surface Ground Temperature {C}
  2.29327249652502,                       !- February Surface Ground Temperature {C}
  2.13240047156047,                       !- March Surface Ground Temperature {C}
  3.08567940719286,                       !- April Surface Ground Temperature {C}
  6.91256312497526,                       !- May Surface Ground Temperature {C}
  10.7216195949507,                       !- June Surface Ground Temperature {C}
  14.0238679822574,                       !- July Surface Ground Temperature {C}
  16.1157611184724,                       !- August Surface Ground Temperature {C}
  16.2934789303462,                       !- September Surface Ground Temperature {C}
  14.5920754632847,                       !- October Surface Ground Temperature {C}
  11.374036348653,                        !- November Surface Ground Temperature {C}
  7.68182621661674;                       !- December Surface Ground Temperature {C}

OS:ThermalZone,
  {20ecb5e9-995a-4892-85cd-d99b7a2ab0a0}, !- Handle
  conditioned space,                      !- Name
  1,                                      !- Multiplier
  ,                                       !- Ceiling Height {m}
  692.06373070848,                        !- Volume {m3}
  ,                                       !- Floor Area {m2}
  ,                                       !- Zone Inside Convection Algorithm
  ,                                       !- Zone Outside Convection Algorithm
  ,                                       !- Zone Conditioning Equipment List Name
  {a3494502-c098-4161-8c70-22dbe3a54288}, !- Zone Air Inlet Port List
  {bda41696-998d-4af5-bebe-4d9568920abb}, !- Zone Air Exhaust Port List
  {a247ee8b-0ecc-4c65-85d1-0808b9a257d1}, !- Zone Air Node Name
  {5303cf23-a385-4aef-b19d-49fcc9de1bf6}, !- Zone Return Air Port List
  ,                                       !- Primary Daylighting Control Name
  ,                                       !- Fraction of Zone Controlled by Primary Daylighting Control
  ,                                       !- Secondary Daylighting Control Name
  ,                                       !- Fraction of Zone Controlled by Secondary Daylighting Control
  ,                                       !- Illuminance Map Name
  ,                                       !- Group Rendering Name
  {262d1732-a3a3-42f1-a796-300fa1990373}, !- Thermostat Name
  No;                                     !- Use Ideal Air Loads

OS:Node,
  {8bcebc21-f2c5-434a-8323-803d2b0b34a4}, !- Handle
  Node 1,                                 !- Name
  {a247ee8b-0ecc-4c65-85d1-0808b9a257d1}, !- Inlet Port
  ;                                       !- Outlet Port

OS:Connection,
  {a247ee8b-0ecc-4c65-85d1-0808b9a257d1}, !- Handle
  {20ecb5e9-995a-4892-85cd-d99b7a2ab0a0}, !- Source Object
  11,                                     !- Outlet Port
  {8bcebc21-f2c5-434a-8323-803d2b0b34a4}, !- Target Object
  2;                                      !- Inlet Port

OS:PortList,
  {a3494502-c098-4161-8c70-22dbe3a54288}, !- Handle
  {20ecb5e9-995a-4892-85cd-d99b7a2ab0a0}, !- HVAC Component
  {a0e1db04-82bc-4506-b36a-07b74c55ad27}; !- Port 1

OS:PortList,
  {bda41696-998d-4af5-bebe-4d9568920abb}, !- Handle
  {20ecb5e9-995a-4892-85cd-d99b7a2ab0a0}; !- HVAC Component

OS:PortList,
  {5303cf23-a385-4aef-b19d-49fcc9de1bf6}, !- Handle
  {20ecb5e9-995a-4892-85cd-d99b7a2ab0a0}, !- HVAC Component
  {85495be0-faf0-4dc3-a37e-d0a2c968ef05}; !- Port 1

OS:Sizing:Zone,
  {7c866b12-766e-409b-83ba-0ad3e13f3944}, !- Handle
  {20ecb5e9-995a-4892-85cd-d99b7a2ab0a0}, !- Zone or ZoneList Name
  SupplyAirTemperature,                   !- Zone Cooling Design Supply Air Temperature Input Method
  14,                                     !- Zone Cooling Design Supply Air Temperature {C}
  11.11,                                  !- Zone Cooling Design Supply Air Temperature Difference {deltaC}
  SupplyAirTemperature,                   !- Zone Heating Design Supply Air Temperature Input Method
  40,                                     !- Zone Heating Design Supply Air Temperature {C}
  11.11,                                  !- Zone Heating Design Supply Air Temperature Difference {deltaC}
  0.0085,                                 !- Zone Cooling Design Supply Air Humidity Ratio {kg-H2O/kg-air}
  0.008,                                  !- Zone Heating Design Supply Air Humidity Ratio {kg-H2O/kg-air}
  ,                                       !- Zone Heating Sizing Factor
  ,                                       !- Zone Cooling Sizing Factor
  DesignDay,                              !- Cooling Design Air Flow Method
  ,                                       !- Cooling Design Air Flow Rate {m3/s}
  ,                                       !- Cooling Minimum Air Flow per Zone Floor Area {m3/s-m2}
  ,                                       !- Cooling Minimum Air Flow {m3/s}
  ,                                       !- Cooling Minimum Air Flow Fraction
  DesignDay,                              !- Heating Design Air Flow Method
  ,                                       !- Heating Design Air Flow Rate {m3/s}
  ,                                       !- Heating Maximum Air Flow per Zone Floor Area {m3/s-m2}
  ,                                       !- Heating Maximum Air Flow {m3/s}
  ,                                       !- Heating Maximum Air Flow Fraction
  No,                                     !- Account for Dedicated Outdoor Air System
  NeutralSupplyAir,                       !- Dedicated Outdoor Air System Control Strategy
  autosize,                               !- Dedicated Outdoor Air Low Setpoint Temperature for Design {C}
  autosize,                               !- Dedicated Outdoor Air High Setpoint Temperature for Design {C}
  Sensible Load Only No Latent Load,      !- Zone Load Sizing Method
  HumidityRatioDifference,                !- Zone Latent Cooling Design Supply Air Humidity Ratio Input Method
  ,                                       !- Zone Dehumidification Design Supply Air Humidity Ratio {kgWater/kgDryAir}
  0.005,                                  !- Zone Cooling Design Supply Air Humidity Ratio Difference {kgWater/kgDryAir}
  HumidityRatioDifference,                !- Zone Latent Heating Design Supply Air Humidity Ratio Input Method
  ,                                       !- Zone Humidification Design Supply Air Humidity Ratio {kgWater/kgDryAir}
  0.005,                                  !- Zone Humidification Design Supply Air Humidity Ratio Difference {kgWater/kgDryAir}
  ,                                       !- Zone Humidistat Dehumidification Set Point Schedule Name
  ,                                       !- Zone Humidistat Humidification Set Point Schedule Name
  ,                                       !- Design Zone Air Distribution Effectiveness in Cooling Mode
  ,                                       !- Design Zone Air Distribution Effectiveness in Heating Mode
  ,                                       !- Design Zone Secondary Recirculation Fraction {dimensionless}
  ,                                       !- Design Minimum Zone Ventilation Efficiency {dimensionless}
  Coincident;                             !- Sizing Option

OS:ZoneHVAC:EquipmentList,
  {efa4856d-5059-4ad3-bcc6-7a6688b9e0e3}, !- Handle
  Zone HVAC Equipment List 1,             !- Name
  {20ecb5e9-995a-4892-85cd-d99b7a2ab0a0}, !- Thermal Zone
  ,                                       !- Load Distribution Scheme
  {6499417f-1f13-4926-a631-e750571f0f7b}, !- Zone Equipment 1
  1,                                      !- Zone Equipment Cooling Sequence 1
  1,                                      !- Zone Equipment Heating or No-Load Sequence 1
  {857fee27-9ec5-4881-89ff-4f575750c7ae}, !- Zone Equipment Sequential Cooling Fraction Schedule Name 1
  {5a616e21-65f7-4608-a8f5-6d49be6f56d5}, !- Zone Equipment Sequential Heating Fraction Schedule Name 1
  {b729f6bb-d31a-4890-9358-5c71773a930b}, !- Zone Equipment 2
  2,                                      !- Zone Equipment Cooling Sequence 2
  2,                                      !- Zone Equipment Heating or No-Load Sequence 2
  {384e9674-551c-47f4-906b-7d8e83911297}, !- Zone Equipment Sequential Cooling Fraction Schedule Name 2
  {a154dbc6-031b-4bb4-8257-4a79cea973f0}; !- Zone Equipment Sequential Heating Fraction Schedule Name 2

OS:AdditionalProperties,
  {6710aefb-d641-494a-8f51-91b535f7604f}, !- Handle
  {20ecb5e9-995a-4892-85cd-d99b7a2ab0a0}, !- Object Name
  ObjectType,                             !- Feature Name 1
  String,                                 !- Feature Data Type 1
  conditioned space;                      !- Feature Value 1

OS:Space,
  {c8ba7517-c9f9-4fd7-8749-309689e1243e}, !- Handle
  conditioned space 1,                    !- Name
  ,                                       !- Space Type Name
  ,                                       !- Default Construction Set Name
  ,                                       !- Default Schedule Set Name
  ,                                       !- Direction of Relative North {deg}
  ,                                       !- X Origin {m}
  ,                                       !- Y Origin {m}
  ,                                       !- Z Origin {m}
  ,                                       !- Building Story Name
  {20ecb5e9-995a-4892-85cd-d99b7a2ab0a0}, !- Thermal Zone Name
  ,                                       !- Part of Total Floor Area
  ,                                       !- Design Specification Outdoor Air Object Name
  ,                                       !- Building Unit Name
  692.06373070848;                        !- Volume {m3}

OS:Schedule:Ruleset,
  {dc8c0878-6ede-45fa-8078-0c92377aa20b}, !- Handle
  heating setpoint,                       !- Name
  {0e6204c7-8796-4c80-8342-dd89fcb25e45}, !- Schedule Type Limits Name
  {18619b05-ffd7-485d-ac55-eedabbdcd95c}; !- Default Day Schedule Name

OS:Schedule:Day,
  {18619b05-ffd7-485d-ac55-eedabbdcd95c}, !- Handle
  heating setpoint default day,           !- Name
  {0e6204c7-8796-4c80-8342-dd89fcb25e45}, !- Schedule Type Limits Name
  ,                                       !- Interpolate to Timestep
  24,                                     !- Hour 1
  0,                                      !- Minute 1
  0;                                      !- Value Until Time 1

OS:Schedule:Rule,
  {7b9993fa-8327-489c-b5ca-2ddc778116dd}, !- Handle
  heating setpoint allday rule,           !- Name
  {dc8c0878-6ede-45fa-8078-0c92377aa20b}, !- Schedule Ruleset Name
  0,                                      !- Rule Order
  {4d58fa59-0ee1-4f62-a3e0-972d04f92a06}, !- Day Schedule Name
  Yes,                                    !- Apply Sunday
  Yes,                                    !- Apply Monday
  Yes,                                    !- Apply Tuesday
  Yes,                                    !- Apply Wednesday
  Yes,                                    !- Apply Thursday
  Yes,                                    !- Apply Friday
  Yes,                                    !- Apply Saturday
  DateRange,                              !- Date Specification Type
  1,                                      !- Start Month
  1,                                      !- Start Day
  12,                                     !- End Month
  31;                                     !- End Day

OS:Schedule:Day,
  {4d58fa59-0ee1-4f62-a3e0-972d04f92a06}, !- Handle
  heating setpoint day,                   !- Name
  {0e6204c7-8796-4c80-8342-dd89fcb25e45}, !- Schedule Type Limits Name
  ,                                       !- Interpolate to Timestep
  24,                                     !- Hour 1
  0,                                      !- Minute 1
  20;                                     !- Value Until Time 1

OS:Schedule:Ruleset,
  {c6d836cd-b608-496b-a434-ccb46cdda4a6}, !- Handle
  cooling setpoint,                       !- Name
  {0e6204c7-8796-4c80-8342-dd89fcb25e45}, !- Schedule Type Limits Name
  {e856ec81-417c-4472-a8e9-c98b1104457c}; !- Default Day Schedule Name

OS:Schedule:Day,
  {e856ec81-417c-4472-a8e9-c98b1104457c}, !- Handle
  cooling setpoint default day,           !- Name
  {0e6204c7-8796-4c80-8342-dd89fcb25e45}, !- Schedule Type Limits Name
  ,                                       !- Interpolate to Timestep
  24,                                     !- Hour 1
  0,                                      !- Minute 1
  0;                                      !- Value Until Time 1

OS:Schedule:Rule,
  {59bd452b-f6f2-4129-8c70-3e49d8c6cb8f}, !- Handle
  cooling setpoint allday rule,           !- Name
  {c6d836cd-b608-496b-a434-ccb46cdda4a6}, !- Schedule Ruleset Name
  0,                                      !- Rule Order
  {30bbe5ef-efa9-4158-8c93-729e142e3ca8}, !- Day Schedule Name
  Yes,                                    !- Apply Sunday
  Yes,                                    !- Apply Monday
  Yes,                                    !- Apply Tuesday
  Yes,                                    !- Apply Wednesday
  Yes,                                    !- Apply Thursday
  Yes,                                    !- Apply Friday
  Yes,                                    !- Apply Saturday
  DateRange,                              !- Date Specification Type
  1,                                      !- Start Month
  1,                                      !- Start Day
  12,                                     !- End Month
  31;                                     !- End Day

OS:Schedule:Day,
  {30bbe5ef-efa9-4158-8c93-729e142e3ca8}, !- Handle
  cooling setpoint day,                   !- Name
  {0e6204c7-8796-4c80-8342-dd89fcb25e45}, !- Schedule Type Limits Name
  ,                                       !- Interpolate to Timestep
  24,                                     !- Hour 1
  0,                                      !- Minute 1
  25.5555555555556;                       !- Value Until Time 1

OS:ThermostatSetpoint:DualSetpoint,
  {262d1732-a3a3-42f1-a796-300fa1990373}, !- Handle
  conditioned space temperature setpoint, !- Name
  {dc8c0878-6ede-45fa-8078-0c92377aa20b}, !- Heating Setpoint Temperature Schedule Name
  {c6d836cd-b608-496b-a434-ccb46cdda4a6}, !- Cooling Setpoint Temperature Schedule Name
  0;                                      !- Temperature Difference Between Cutout And Setpoint {deltaC}

OS:ScheduleTypeLimits,
  {0e6204c7-8796-4c80-8342-dd89fcb25e45}, !- Handle
  Temperature,                            !- Name
  ,                                       !- Lower Limit Value
  ,                                       !- Upper Limit Value
  Continuous,                             !- Numeric Type
  Temperature;                            !- Unit Type

OS:Surface,
  {2b6f21ea-3add-4852-a5a2-661380b3143d}, !- Handle
  Roof1,                                  !- Name
  RoofCeiling,                            !- Surface Type
  {3bb0d6ca-c9fc-4ee5-ad4d-48ae38a2bc4c}, !- Construction Name
  {ed9d3153-5701-4529-955e-fdd0ea4d881d}, !- Space Name
  Outdoors,                               !- Outside Boundary Condition
  ,                                       !- Outside Boundary Condition Object
  SunExposed,                             !- Sun Exposure
  WindExposed,                            !- Wind Exposure
  ,                                       !- View Factor to Ground
  ,                                       !- Number of Vertices
  -26.9347048849634, 58.0557891618865, 2.4384, !- X,Y,Z Vertex 1 {m}
  -26.9347048849634, 46.7895631136661, 8.0715130241102, !- X,Y,Z Vertex 2 {m}
  -14.3386812381136, 46.7895631136661, 8.0715130241102, !- X,Y,Z Vertex 3 {m}
  -14.3386812381136, 58.0557891618865, 2.4384; !- X,Y,Z Vertex 4 {m}

OS:AdditionalProperties,
  {1b9a5dd1-f598-435e-9b5e-607d176ea361}, !- Handle
  {2b6f21ea-3add-4852-a5a2-661380b3143d}, !- Object Name
  Length,                                 !- Feature Name 1
  Double,                                 !- Feature Data Type 1
  41.325536899113608,                     !- Feature Value 1
  Width,                                  !- Feature Name 2
  Double,                                 !- Feature Data Type 2
  41.325536899113601,                     !- Feature Value 2
  Azimuth,                                !- Feature Name 3
  Integer,                                !- Feature Data Type 3
  0,                                      !- Feature Value 3
  Tilt,                                   !- Feature Name 4
  Double,                                 !- Feature Data Type 4
  0.5,                                    !- Feature Value 4
  SurfaceType,                            !- Feature Name 5
  String,                                 !- Feature Data Type 5
  Roof;                                   !- Feature Value 5

OS:ThermalZone,
  {58eeb709-7d71-4150-8e3b-385fad341a61}, !- Handle
  attic - vented,                         !- Name
  1,                                      !- Multiplier
  ,                                       !- Ceiling Height {m}
  356.390921899745,                       !- Volume {m3}
  ,                                       !- Floor Area {m2}
  ,                                       !- Zone Inside Convection Algorithm
  ,                                       !- Zone Outside Convection Algorithm
  ,                                       !- Zone Conditioning Equipment List Name
  {b4f44ca3-a496-4329-a19b-5910ca3407f9}, !- Zone Air Inlet Port List
  {8d78d18e-a3ac-4f95-9e35-ba1dd12c4894}, !- Zone Air Exhaust Port List
  {a9983078-0e95-49e8-823f-4dc9ffc015cf}, !- Zone Air Node Name
  {14fe091e-cd6f-4f0e-a50a-68afa8e0c15e}, !- Zone Return Air Port List
  ,                                       !- Primary Daylighting Control Name
  ,                                       !- Fraction of Zone Controlled by Primary Daylighting Control
  ,                                       !- Secondary Daylighting Control Name
  ,                                       !- Fraction of Zone Controlled by Secondary Daylighting Control
  ,                                       !- Illuminance Map Name
  ,                                       !- Group Rendering Name
  ,                                       !- Thermostat Name
  No;                                     !- Use Ideal Air Loads

OS:Node,
  {94c24d28-f0e3-47b9-93e7-93e90cb91374}, !- Handle
  Node 2,                                 !- Name
  {a9983078-0e95-49e8-823f-4dc9ffc015cf}, !- Inlet Port
  ;                                       !- Outlet Port

OS:Connection,
  {a9983078-0e95-49e8-823f-4dc9ffc015cf}, !- Handle
  {58eeb709-7d71-4150-8e3b-385fad341a61}, !- Source Object
  11,                                     !- Outlet Port
  {94c24d28-f0e3-47b9-93e7-93e90cb91374}, !- Target Object
  2;                                      !- Inlet Port

OS:PortList,
  {b4f44ca3-a496-4329-a19b-5910ca3407f9}, !- Handle
  {58eeb709-7d71-4150-8e3b-385fad341a61}; !- HVAC Component

OS:PortList,
  {8d78d18e-a3ac-4f95-9e35-ba1dd12c4894}, !- Handle
  {58eeb709-7d71-4150-8e3b-385fad341a61}; !- HVAC Component

OS:PortList,
  {14fe091e-cd6f-4f0e-a50a-68afa8e0c15e}, !- Handle
  {58eeb709-7d71-4150-8e3b-385fad341a61}; !- HVAC Component

OS:Sizing:Zone,
  {231617fd-b018-40fe-91f6-788b0b22a860}, !- Handle
  {58eeb709-7d71-4150-8e3b-385fad341a61}, !- Zone or ZoneList Name
  SupplyAirTemperature,                   !- Zone Cooling Design Supply Air Temperature Input Method
  14,                                     !- Zone Cooling Design Supply Air Temperature {C}
  11.11,                                  !- Zone Cooling Design Supply Air Temperature Difference {deltaC}
  SupplyAirTemperature,                   !- Zone Heating Design Supply Air Temperature Input Method
  40,                                     !- Zone Heating Design Supply Air Temperature {C}
  11.11,                                  !- Zone Heating Design Supply Air Temperature Difference {deltaC}
  0.0085,                                 !- Zone Cooling Design Supply Air Humidity Ratio {kg-H2O/kg-air}
  0.008,                                  !- Zone Heating Design Supply Air Humidity Ratio {kg-H2O/kg-air}
  ,                                       !- Zone Heating Sizing Factor
  ,                                       !- Zone Cooling Sizing Factor
  DesignDay,                              !- Cooling Design Air Flow Method
  ,                                       !- Cooling Design Air Flow Rate {m3/s}
  ,                                       !- Cooling Minimum Air Flow per Zone Floor Area {m3/s-m2}
  ,                                       !- Cooling Minimum Air Flow {m3/s}
  ,                                       !- Cooling Minimum Air Flow Fraction
  DesignDay,                              !- Heating Design Air Flow Method
  ,                                       !- Heating Design Air Flow Rate {m3/s}
  ,                                       !- Heating Maximum Air Flow per Zone Floor Area {m3/s-m2}
  ,                                       !- Heating Maximum Air Flow {m3/s}
  ,                                       !- Heating Maximum Air Flow Fraction
  No,                                     !- Account for Dedicated Outdoor Air System
  NeutralSupplyAir,                       !- Dedicated Outdoor Air System Control Strategy
  autosize,                               !- Dedicated Outdoor Air Low Setpoint Temperature for Design {C}
  autosize,                               !- Dedicated Outdoor Air High Setpoint Temperature for Design {C}
  Sensible Load Only No Latent Load,      !- Zone Load Sizing Method
  HumidityRatioDifference,                !- Zone Latent Cooling Design Supply Air Humidity Ratio Input Method
  ,                                       !- Zone Dehumidification Design Supply Air Humidity Ratio {kgWater/kgDryAir}
  0.005,                                  !- Zone Cooling Design Supply Air Humidity Ratio Difference {kgWater/kgDryAir}
  HumidityRatioDifference,                !- Zone Latent Heating Design Supply Air Humidity Ratio Input Method
  ,                                       !- Zone Humidification Design Supply Air Humidity Ratio {kgWater/kgDryAir}
  0.005,                                  !- Zone Humidification Design Supply Air Humidity Ratio Difference {kgWater/kgDryAir}
  ,                                       !- Zone Humidistat Dehumidification Set Point Schedule Name
  ,                                       !- Zone Humidistat Humidification Set Point Schedule Name
  ,                                       !- Design Zone Air Distribution Effectiveness in Cooling Mode
  ,                                       !- Design Zone Air Distribution Effectiveness in Heating Mode
  ,                                       !- Design Zone Secondary Recirculation Fraction {dimensionless}
  ,                                       !- Design Minimum Zone Ventilation Efficiency {dimensionless}
  Coincident;                             !- Sizing Option

OS:ZoneHVAC:EquipmentList,
  {9c313a2c-b0a5-4406-a5a3-82b54ed9d4ca}, !- Handle
  Zone HVAC Equipment List 2,             !- Name
  {58eeb709-7d71-4150-8e3b-385fad341a61}; !- Thermal Zone

OS:AdditionalProperties,
  {974be4d5-fe0e-4f1c-a9f1-4f8cf7677e47}, !- Handle
  {58eeb709-7d71-4150-8e3b-385fad341a61}, !- Object Name
  ObjectType,                             !- Feature Name 1
  String,                                 !- Feature Data Type 1
  attic - vented;                         !- Feature Value 1

OS:Space,
  {ed9d3153-5701-4529-955e-fdd0ea4d881d}, !- Handle
  attic - vented 1,                       !- Name
  ,                                       !- Space Type Name
  ,                                       !- Default Construction Set Name
  ,                                       !- Default Schedule Set Name
  ,                                       !- Direction of Relative North {deg}
  ,                                       !- X Origin {m}
  ,                                       !- Y Origin {m}
  ,                                       !- Z Origin {m}
  ,                                       !- Building Story Name
  {58eeb709-7d71-4150-8e3b-385fad341a61}, !- Thermal Zone Name
  ,                                       !- Part of Total Floor Area
  ,                                       !- Design Specification Outdoor Air Object Name
  ,                                       !- Building Unit Name
  356.390921899745;                       !- Volume {m3}

OS:Material,
  {de07b309-4e96-4aab-847e-ddffa1bea75c}, !- Handle
  asphalt or fiberglass shingles,         !- Name