
OS:Version,
  {4fc84bd5-8019-45e4-8ae8-3c02d191f7a1}, !- Handle
  3.10.0;                                 !- Version Identifier

OS:SimulationControl,
  {86b2b272-72b1-4065-8bce-05368ebdf4aa}, !- Handle
  ,                                       !- Do Zone Sizing Calculation
  ,                                       !- Do System Sizing Calculation
  ,                                       !- Do Plant Sizing Calculation
  No;                                     !- Run Simulation for Sizing Periods

OS:Timestep,
  {e4f7dbf4-6d10-4f2d-8873-372abe6aa29d}, !- Handle
  1;                                      !- Number of Timesteps per Hour

OS:ShadowCalculation,
  {0710e90e-75f8-41bc-96ec-c0a77e006335}, !- Handle
  PolygonClipping,                        !- Shading Calculation Method
  ,                                       !- Shading Calculation Update Frequency Method
  20,                                     !- Shading Calculation Update Frequency
  200,                                    !- Maximum Figures in Shadow Overlap Calculations
  ,                                       !- Polygon Clipping Algorithm
  512,                                    !- Pixel Counting Resolution
  ,                                       !- Sky Diffuse Modeling Algorithm
  No,                                     !- Output External Shading Calculation Results
  No,                                     !- Disable Self-Shading Within Shading Zone Groups
  No;                                     !- Disable Self-Shading From Shading Zone Groups to Other Zones

OS:SurfaceConvectionAlgorithm:Outside,
  {c0dbc643-2b21-445b-a1a9-d62fcaef4f96}, !- Handle
  DOE-2;                                  !- Algorithm

OS:SurfaceConvectionAlgorithm:Inside,
  {8bdd17ba-c858-4d03-962b-415bee06e3c2}, !- Handle
  TARP;                                   !- Algorithm

OS:ZoneCapacitanceMultiplier:ResearchSpecial,
  {a00e1cbc-edf2-4de8-aded-4c27851bac7a}, !- Handle
  7,                                      !- Temperature Capacity Multiplier
  15,                                     !- Humidity Capacity Multiplier
  ;                                       !- Carbon Dioxide Capacity Multiplier

OS:ConvergenceLimits,
  {cef10b45-1188-4636-a9d0-ca5be8e2fca1}, !- Handle
  0;                                      !- Minimum System Timestep {minutes}

OS:RunPeriod,
  {b0521490-8798-4bcd-bb46-2766bf28f47c}, !- Handle
  Run Period 1,                           !- Name
  1,                                      !- Begin Month
  1,                                      !- Begin Day of Month
  12,                                     !- End Month
  31,                                     !- End Day of Month
  ,                                       !- Use Weather File Holidays and Special Days
  ,                                       !- Use Weather File Daylight Saving Period
  ,                                       !- Apply Weekend Holiday Rule
  ,                                       !- Use Weather File Rain Indicators
  ,                                       !- Use Weather File Snow Indicators
  ;                                       !- Number of Times Runperiod to be Repeated

OS:PerformancePrecisionTradeoffs,
  {69273eb1-b2ea-440e-9f77-cd55566060e3}, !- Handle
  ,                                       !- Use Coil Direct Solutions
  CarrollMRT;                             !- Zone Radiant Exchange Algorithm

OS:WeatherFile,
  {7bdfdfa2-cbc3-40a4-9ff3-fd0024333cbb}, !- Handle
  Buffalo Niagara Intl Ap,                !- City
  NY,                                     !- State Province Region
  USA,                                    !- Country
  TMY3,                                   !- Data Source
  725280,                                 !- WMO Number
  42.93,                                  !- Latitude {deg}
  -78.73,                                 !- Longitude {deg}
  -5,                                     !- Time Zone {hr}
  215,                                    !- Elevation {m}
  /Users/nmoore/github/urbanopt-example-geojson-project/example_project/weather/USA_NY_Buffalo-Greater.Buffalo.Intl.AP.725280_TMY3.epw, !- Url
  6B50E0FF,                               !- Checksum
  ,                                       !- Start Date Actual Year
  Sunday;                                 !- Start Day of Week

OS:YearDescription,
  {cf482ad7-a4d2-4dec-a574-acc6988f9e58}, !- Handle
  2007,                                   !- Calendar Year
  ,                                       !- Day of Week for Start Day
  ;                                       !- Is Leap Year

OS:Site,
  {52f72c59-62bd-4cd2-827c-42df3b40dec7}, !- Handle
  Buffalo Niagara Intl Ap_NY,             !- Name
  42.93,                                  !- Latitude {deg}
  -78.73,                                 !- Longitude {deg}
  -5,                                     !- Time Zone {hr}
  215,                                    !- Elevation {m}
  Suburbs,                                !- Terrain
  Yes;                                    !- Keep Site Location Information

OS:RunPeriodControl:DaylightSavingTime,
  {9c77c929-c074-49db-8147-1ff5715f2338}, !- Handle
  Mar 12,                                 !- Start Date
  Nov 5;                                  !- End Date

OS:Site:GroundTemperature:Shallow,
  {26013d16-5809-4160-8a03-3c1661a8e1a4}, !- Handle
  4.30207395723828,                       !- January Surface Ground Temperature {C}
  2.29327249652502,                       !- February Surface Ground Temperature {C}
  2.13240047156047,                       !- March Surface Ground Temperature {C}
  3.08567940719286,                       !- April Surface Ground Temperature {C}
  6.91256312497526,                       !- May Surface Ground Temperature {C}
  10.7216195949507,                       !- June Surface Ground Temperature {C}
  14.0238679822574,                       !- July Surface Ground Temperature {C}
  16.1157611184724,                       !- August Surface Ground Temperature {C}
  16.2934789303462,                       !- September Surface Ground Temperature {C}
  14.5920754632847,                       !- October Surface Ground Temperature {C}
  11.374036348653,                        !- November Surface Ground Temperature {C}
  7.68182621661674;                       !- December Surface Ground Temperature {C}

OS:ThermalZone,
  {0c8798f4-39ff-4dee-ac2a-67b492b2bd85}, !- Handle
  conditioned space,                      !- Name
  1,                                      !- Multiplier
  ,                                       !- Ceiling Height {m}
  692.06373070848,                        !- Volume {m3}
  ,                                       !- Floor Area {m2}
  ,                                       !- Zone Inside Convection Algorithm
  ,                                       !- Zone Outside Convection Algorithm
  ,                                       !- Zone Conditioning Equipment List Name
  {eb651c12-0c2c-4a0e-b0b8-64879a03b2bb}, !- Zone Air Inlet Port List
  {a0168ccf-3fc9-422c-a17c-beb1dd39ade8}, !- Zone Air Exhaust Port List
  {d9ae621e-b2ca-4db6-83df-bba69a808a78}, !- Zone Air Node Name
  {5554d56e-6582-4fb2-83d2-a971dd6a92ef}, !- Zone Return Air Port List
  ,                                       !- Primary Daylighting Control Name
  ,                                       !- Fraction of Zone Controlled by Primary Daylighting Control
  ,                                       !- Secondary Daylighting Control Name
  ,                                       !- Fraction of Zone Controlled by Secondary Daylighting Control
  ,                                       !- Illuminance Map Name
  ,                                       !- Group Rendering Name
  {99ff4862-f835-4ce2-8ded-67ef88d53b35}, !- Thermostat Name
  No;                                     !- Use Ideal Air Loads

OS:Node,
  {27f031cd-ec96-495f-b4bf-d43f8e27efaa}, !- Handle
  Node 1,                                 !- Name
  {d9ae621e-b2ca-4db6-83df-bba69a808a78}, !- Inlet Port
  ;                                       !- Outlet Port

OS:Connection,
  {d9ae621e-b2ca-4db6-83df-bba69a808a78}, !- Handle
  {0c8798f4-39ff-4dee-ac2a-67b492b2bd85}, !- Source Object
  11,                                     !- Outlet Port
  {27f031cd-ec96-495f-b4bf-d43f8e27efaa}, !- Target Object
  2;                                      !- Inlet Port

OS:PortList,
  {eb651c12-0c2c-4a0e-b0b8-64879a03b2bb}, !- Handle
  {0c8798f4-39ff-4dee-ac2a-67b492b2bd85}, !- HVAC Component
  {9c58b5b7-bec5-4e5d-9f70-33e5b11062b0}; !- Port 1

OS:PortList,
  {a0168ccf-3fc9-422c-a17c-beb1dd39ade8}, !- Handle
  {0c8798f4-39ff-4dee-ac2a-67b492b2bd85}; !- HVAC Component

OS:PortList,
  {5554d56e-6582-4fb2-83d2-a971dd6a92ef}, !- Handle
  {0c8798f4-39ff-4dee-ac2a-67b492b2bd85}, !- HVAC Component
  {fae9f4f5-caab-4e12-b86b-c59b92258f43}; !- Port 1

OS:Sizing:Zone,
  {3de3db61-f1f1-47b5-8ee2-4f0e5de16489}, !- Handle
  {0c8798f4-39ff-4dee-ac2a-67b492b2bd85}, !- Zone or ZoneList Name
  SupplyAirTemperature,                   !- Zone Cooling Design Supply Air Temperature Input Method
  14,                                     !- Zone Cooling Design Supply Air Temperature {C}
  11.11,                                  !- Zone Cooling Design Supply Air Temperature Difference {deltaC}
  SupplyAirTemperature,                   !- Zone Heating Design Supply Air Temperature Input Method
  40,                                     !- Zone Heating Design Supply Air Temperature {C}
  11.11,                                  !- Zone Heating Design Supply Air Temperature Difference {deltaC}
  0.0085,                                 !- Zone Cooling Design Supply Air Humidity Ratio {kg-H2O/kg-air}
  0.008,                                  !- Zone Heating Design Supply Air Humidity Ratio {kg-H2O/kg-air}
  ,                                       !- Zone Heating Sizing Factor
  ,                                       !- Zone Cooling Sizing Factor
  DesignDay,                              !- Cooling Design Air Flow Method
  ,                                       !- Cooling Design Air Flow Rate {m3/s}
  ,                                       !- Cooling Minimum Air Flow per Zone Floor Area {m3/s-m2}
  ,                                       !- Cooling Minimum Air Flow {m3/s}
  ,                                       !- Cooling Minimum Air Flow Fraction
  DesignDay,                              !- Heating Design Air Flow Method
  ,                                       !- Heating Design Air Flow Rate {m3/s}
  ,                                       !- Heating Maximum Air Flow per Zone Floor Area {m3/s-m2}
  ,                                       !- Heating Maximum Air Flow {m3/s}
  ,                                       !- Heating Maximum Air Flow Fraction
  No,                                     !- Account for Dedicated Outdoor Air System
  NeutralSupplyAir,                       !- Dedicated Outdoor Air System Control Strategy
  autosize,                               !- Dedicated Outdoor Air Low Setpoint Temperature for Design {C}
  autosize,                               !- Dedicated Outdoor Air High Setpoint Temperature for Design {C}
  Sensible Load Only No Latent Load,      !- Zone Load Sizing Method
  HumidityRatioDifference,                !- Zone Latent Cooling Design Supply Air Humidity Ratio Input Method
  ,                                       !- Zone Dehumidification Design Supply Air Humidity Ratio {kgWater/kgDryAir}
  0.005,                                  !- Zone Cooling Design Supply Air Humidity Ratio Difference {kgWater/kgDryAir}
  HumidityRatioDifference,                !- Zone Latent Heating Design Supply Air Humidity Ratio Input Method
  ,                                       !- Zone Humidification Design Supply Air Humidity Ratio {kgWater/kgDryAir}
  0.005,                                  !- Zone Humidification Design Supply Air Humidity Ratio Difference {kgWater/kgDryAir}
  ,                                       !- Zone Humidistat Dehumidification Set Point Schedule Name
  ,                                       !- Zone Humidistat Humidification Set Point Schedule Name
  ,                                       !- Design Zone Air Distribution Effectiveness in Cooling Mode
  ,                                       !- Design Zone Air Distribution Effectiveness in Heating Mode
  ,                                       !- Design Zone Secondary Recirculation Fraction {dimensionless}
  ,                                       !- Design Minimum Zone Ventilation Efficiency {dimensionless}
  Coincident;                             !- Sizing Option

OS:ZoneHVAC:EquipmentList,
  {78d3dddd-2d56-43cb-ab19-32495ae1a42f}, !- Handle
  Zone HVAC Equipment List 1,             !- Name
  {0c8798f4-39ff-4dee-ac2a-67b492b2bd85}, !- Thermal Zone
  ,                                       !- Load Distribution Scheme
  {19be7827-deaa-4e44-86ba-6f8de9f86f5a}, !- Zone Equipment 1
  1,                                      !- Zone Equipment Cooling Sequence 1
  1,                                      !- Zone Equipment Heating or No-Load Sequence 1
  {002c80bb-f7b7-4550-a4de-8be233a53833}, !- Zone Equipment Sequential Cooling Fraction Schedule Name 1
  {c8d53323-ed5b-4f6d-b584-e3766168ccc2}; !- Zone Equipment Sequential Heating Fraction Schedule Name 1

OS:AdditionalProperties,
  {f8cdffb9-1f3c-4d1c-9ad5-dce76841f00f}, !- Handle
  {0c8798f4-39ff-4dee-ac2a-67b492b2bd85}, !- Object Name
  ObjectType,                             !- Feature Name 1
  String,                                 !- Feature Data Type 1
  conditioned space;                      !- Feature Value 1

OS:Space,
  {6a8a4fd1-a26e-4d04-b557-bfc55a6dc490}, !- Handle
  conditioned space 1,                    !- Name
  ,                                       !- Space Type Name
  ,                                       !- Default Construction Set Name
  ,                                       !- Default Schedule Set Name
  ,                                       !- Direction of Relative North {deg}
  ,                                       !- X Origin {m}
  ,                                       !- Y Origin {m}
  ,                                       !- Z Origin {m}
  ,                                       !- Building Story Name
  {0c8798f4-39ff-4dee-ac2a-67b492b2bd85}, !- Thermal Zone Name
  ,                                       !- Part of Total Floor Area
  ,                                       !- Design Specification Outdoor Air Object Name
  ,                                       !- Building Unit Name
  692.06373070848;                        !- Volume {m3}

OS:Schedule:Ruleset,
  {b7d1cfde-8bf4-43e9-819e-c3db9a6836b3}, !- Handle
  heating setpoint,                       !- Name
  {ac382f70-609c-48d3-9d45-a8bc53718f4c}, !- Schedule Type Limits Name
  {b7daa91f-d002-4aac-ab77-f253fee40492}; !- Default Day Schedule Name

OS:Schedule:Day,
  {b7daa91f-d002-4aac-ab77-f253fee40492}, !- Handle
  heating setpoint default day,           !- Name
  {ac382f70-609c-48d3-9d45-a8bc53718f4c}, !- Schedule Type Limits Name
  ,                                       !- Interpolate to Timestep
  24,                                     !- Hour 1
  0,                                      !- Minute 1
  0;                                      !- Value Until Time 1

OS:Schedule:Rule,
  {546f3579-af2c-4dfa-93e0-dd559761d363}, !- Handle
  heating setpoint allday rule,           !- Name
  {b7d1cfde-8bf4-43e9-819e-c3db9a6836b3}, !- Schedule Ruleset Name
  0,                                      !- Rule Order
  {ee5df6fc-1ce5-4987-82b8-9a7e0f138ef5}, !- Day Schedule Name
  Yes,                                    !- Apply Sunday
  Yes,                                    !- Apply Monday
  Yes,                                    !- Apply Tuesday
  Yes,                                    !- Apply Wednesday
  Yes,                                    !- Apply Thursday
  Yes,                                    !- Apply Friday
  Yes,                                    !- Apply Saturday
  DateRange,                              !- Date Specification Type
  1,                                      !- Start Month
  1,                                      !- Start Day
  12,                                     !- End Month
  31;                                     !- End Day

OS:Schedule:Day,
  {ee5df6fc-1ce5-4987-82b8-9a7e0f138ef5}, !- Handle
  heating setpoint day,                   !- Name
  {ac382f70-609c-48d3-9d45-a8bc53718f4c}, !- Schedule Type Limits Name
  ,                                       !- Interpolate to Timestep
  24,                                     !- Hour 1
  0,                                      !- Minute 1
  20;                                     !- Value Until Time 1

OS:Schedule:Ruleset,
  {20e87199-cbcf-4166-9b13-16f8fa9818b9}, !- Handle
  cooling setpoint,                       !- Name
  {ac382f70-609c-48d3-9d45-a8bc53718f4c}, !- Schedule Type Limits Name
  {e20b8002-1348-4c8f-a328-7cb50fb0e175}; !- Default Day Schedule Name

OS:Schedule:Day,
  {e20b8002-1348-4c8f-a328-7cb50fb0e175}, !- Handle
  cooling setpoint default day,           !- Name
  {ac382f70-609c-48d3-9d45-a8bc53718f4c}, !- Schedule Type Limits Name
  ,                                       !- Interpolate to Timestep
  24,                                     !- Hour 1
  0,                                      !- Minute 1
  0;                                      !- Value Until Time 1

OS:Schedule:Rule,
  {19138239-fdcc-4eee-b325-be6677f82296}, !- Handle
  cooling setpoint allday rule,           !- Name
  {20e87199-cbcf-4166-9b13-16f8fa9818b9}, !- Schedule Ruleset Name
  0,                                      !- Rule Order
  {60879182-5881-431e-9194-ec91d112627c}, !- Day Schedule Name
  Yes,                                    !- Apply Sunday
  Yes,                                    !- Apply Monday
  Yes,                                    !- Apply Tuesday
  Yes,                                    !- Apply Wednesday
  Yes,                                    !- Apply Thursday
  Yes,                                    !- Apply Friday
  Yes,                                    !- Apply Saturday
  DateRange,                              !- Date Specification Type
  1,                                      !- Start Month
  1,                                      !- Start Day
  12,                                     !- End Month
  31;                                     !- End Day

OS:Schedule:Day,
  {60879182-5881-431e-9194-ec91d112627c}, !- Handle
  cooling setpoint day,                   !- Name
  {ac382f70-609c-48d3-9d45-a8bc53718f4c}, !- Schedule Type Limits Name
  ,                                       !- Interpolate to Timestep
  24,                                     !- Hour 1
  0,                                      !- Minute 1
  25.5555555555556;                       !- Value Until Time 1

OS:ThermostatSetpoint:DualSetpoint,
  {99ff4862-f835-4ce2-8ded-67ef88d53b35}, !- Handle
  conditioned space temperature setpoint, !- Name
  {b7d1cfde-8bf4-43e9-819e-c3db9a6836b3}, !- Heating Setpoint Temperature Schedule Name
  {20e87199-cbcf-4166-9b13-16f8fa9818b9}, !- Cooling Setpoint Temperature Schedule Name
  0;                                      !- Temperature Difference Between Cutout And Setpoint {deltaC}

OS:ScheduleTypeLimits,
  {ac382f70-609c-48d3-9d45-a8bc53718f4c}, !- Handle
  Temperature,                            !- Name
  ,                                       !- Lower Limit Value
  ,                                       !- Upper Limit Value
  Continuous,                             !- Numeric Type
  Temperature;                            !- Unit Type

OS:Surface,
  {6be3a9a3-42bb-4b33-89c8-0046193d1e97}, !- Handle
  Roof1,                                  !- Name
  RoofCeiling,                            !- Surface Type
  {1e7c9289-db0a-4899-9f24-2f4e77b7d642}, !- Construction Name
  {6a8a4fd1-a26e-4d04-b557-bfc55a6dc490}, !- Space Name
  Outdoors,                               !- Outside Boundary Condition
  ,                                       !- Outside Boundary Condition Object
  SunExposed,                             !- Sun Exposure
  WindExposed,                            !- Wind Exposure
  ,                                       !- View Factor to Ground
  ,                                       !- Number of Vertices
  -5.95628646053898, 5.95628646053898, 2.4384, !- X,Y,Z Vertex 1 {m}
  -5.95628646053898, -5.95628646053898, 2.4384, !- X,Y,Z Vertex 2 {m}
  5.95628646053898, -5.95628646053898, 2.4384, !- X,Y,Z Vertex 3 {m}
  5.95628646053898, 5.95628646053898, 2.4384; !- X,Y,Z Vertex 4 {m}

OS:AdditionalProperties,
  {8425b03b-f6b0-442b-9e89-3f1d728ae106}, !- Handle
  {6be3a9a3-42bb-4b33-89c8-0046193d1e97}, !- Object Name
  Length,                                 !- Feature Name 1
  Double,                                 !- Feature Data Type 1
  39.083244491725608,                     !- Feature Value 1
  Width,                                  !- Feature Name 2
  Double,                                 !- Feature Data Type 2
  39.083244491725608,                     !- Feature Value 2
  Azimuth,                                !- Feature Name 3
  Integer,                                !- Feature Data Type 3
  0,                                      !- Feature Value 3
  Tilt,                                   !- Feature Name 4
  Double,                                 !- Feature Data Type 4
  0,                                      !- Feature Value 4
  SurfaceType,                            !- Feature Name 5
  String,                                 !- Feature Data Type 5
  Roof;                                   !- Feature Value 5

OS:Material,
  {c5330a26-3eed-4c93-a5b6-96082d9ad88f}, !- Handle
  asphalt or fiberglass shingles,         !- Name
  Rough,                                  !- Roughness
  0.00635,                                !- Thickness {m}
  0.162714,                               !- Conductivity {W/m-K}
  1121.4,                                 !- Density {kg/m3}
  1465.45,                                !- Specific Heat {J/kg-K}
  0.9,                                    !- Thermal Absorptance
  0.85,                                   !- Solar Absorptance
  0.85;                                   !- Visible Absorptance

OS:Material,
  {d06c723f-d31a-4a75-8473-a3dd198b7e91}, !- Handle
  roof stud and cavity,                   !- Name
  Rough,                                  !- Roughness
  0.0889,                                 !- Thickness {m}
  0.491900632004487,                      !- Conductivity {W/m-K}
  50.32683,                               !- Density {kg/m3}
  1063.80987585548,                       !- Specific Heat {J/kg-K}
  0.9,                                    !- Thermal Absorptance
  0.7,                                    !- Solar Absorptance
  0.7;                                    !- Visible Absorptance

OS:Material,
  {cd0fb4a6-9542-4402-9509-9e4300f19b23}, !- Handle
  gypsum board,                           !- Name
  Rough,                                  !- Roughness
  0.00254,                                !- Thickness {m}
  0.1602906,                              !- Conductivity {W/m-K}
  801,                                    !- Density {kg/m3}
  837.4,                                  !- Specific Heat {J/kg-K}
  0.9,                                    !- Thermal Absorptance
  0.6,                                    !- Solar Absorptance
  0.6;                                    !- Visible Absorptance

OS:Construction,
  {1e7c9289-db0a-4899-9f24-2f4e77b7d642}, !- Handle
  Roof1 construction,                     !- Name
  ,                                       !- Surface Rendering Name
  {c5330a26-3eed-4c93-a5b6-96082d9ad88f}, !- Layer 1
  {d06c723f-d31a-4a75-8473-a3dd198b7e91}, !- Layer 2
  {cd0fb4a6-9542-4402-9509-9e4300f19b23}; !- Layer 3

OS:Surface,
  {18a627c9-92c0-411b-86a1-25e17fe0336c}, !- Handle
  Wall1,                                  !- Name
  Wall,                                   !- Surface Type
  {ff7fa738-1513-4614-a7ee-6923118a9159}, !- Construction Name
  {6a8a4fd1-a26e-4d04-b557-bfc55a6dc490}, !- Space Name
  Outdoors,                               !- Outside Boundary Condition
  ,                                       !- Outside Boundary Condition Object
  SunExposed,                             !- Sun Exposure
  WindExposed,                            !- Wind Exposure
  ,                                       !- View Factor to Ground
  ,                                       !- Number of Vertices
  -35.7504882769231, 36.6795186769231, 0, !- X,Y,Z Vertex 1 {m}
  -35.7504882769231, 36.6795186769231, 2.4384, !- X,Y,Z Vertex 2 {m}
  -21.9354282769231, 36.6795186769231, 2.4384, !- X,Y,Z Vertex 3 {m}
  -21.9354282769231, 36.6795186769231, 0; !- X,Y,Z Vertex 4 {m}

OS:AdditionalProperties,
  {550f13f5-529c-4ab5-a5b6-a441f4f22537}, !- Handle
  {18a627c9-92c0-411b-86a1-25e17fe0336c}, !- Object Name
  Length,                                 !- Feature Name 1
  Double,                                 !- Feature Data Type 1
  45.325000000000003,                     !- Feature Value 1
  Azimuth,                                !- Feature Name 2
  Integer,                                !- Feature Data Type 2
  0,                                      !- Feature Value 2
  Tilt,                                   !- Feature Name 3
  Double,                                 !- Feature Data Type 3
  90,                                     !- Feature Value 3
  SurfaceType,                            !- Feature Name 4
  String,                                 !- Feature Data Type 4
  Wall;                                   !- Feature Value 4

OS:Material,
  {749b562d-cb2b-45f5-9bd2-b5021626d0df}, !- Handle
  wood siding,                            !- Name
  Rough,                                  !- Roughness
  0.0254,                                 !- Thickness {m}
  0.1024175,                              !- Conductivity {W/m-K}
  544.68,                                 !- Density {kg/m3}
  1172.36,                                !- Specific Heat {J/kg-K}
  0.9,                                    !- Thermal Absorptance
  0.7,                                    !- Solar Absorptance
  0.7;                                    !- Visible Absorptance

OS:Material,
  {e9c448ff-cf8d-4f44-bdf4-31e91d57bacd}, !- Handle
  osb sheathing 0.5 in.,                  !- Name
  Rough,                                  !- Roughness
  0.0127,                                 !- Thickness {m}
  0.1154577,                              !- Conductivity {W/m-K}
  512.64,                                 !- Density {kg/m3}
  1214.23,                                !- Specific Heat {J/kg-K}
  0.9,                                    !- Thermal Absorptance
  0.7,                                    !- Solar Absorptance
  0.7;                                    !- Visible Absorptance

OS:Material,
  {1f0c6376-874c-4708-9d44-f9b003e1cd45}, !- Handle
  wall stud and cavity,                   !- Name
  Rough,                                  !- Roughness
  0.1397,                                 !- Thickness {m}
  0.0929021674204099,                     !- Conductivity {W/m-K}
  139.0536,                               !- Density {kg/m3}
  1170.23755760369,                       !- Specific Heat {J/kg-K}
  0.9,                                    !- Thermal Absorptance
  0.7,                                    !- Solar Absorptance
  0.7;                                    !- Visible Absorptance

OS:Material,
  {5cabaaa7-73c7-4b16-9eb5-42e2de004f29}, !- Handle
  gypsum board 1,                         !- Name
  Rough,                                  !- Roughness
  0.0127,                                 !- Thickness {m}
  0.1602906,                              !- Conductivity {W/m-K}
  801,                                    !- Density {kg/m3}
  837.4,                                  !- Specific Heat {J/kg-K}
  0.9,                                    !- Thermal Absorptance
  0.6,                                    !- Solar Absorptance
  0.6;                                    !- Visible Absorptance

OS:Construction,
  {ff7fa738-1513-4614-a7ee-6923118a9159}, !- Handle
  Wall1 construction,                     !- Name
  ,                                       !- Surface Rendering Name
  {749b562d-cb2b-45f5-9bd2-b5021626d0df}, !- Layer 1
  {e9c448ff-cf8d-4f44-bdf4-31e91d57bacd}, !- Layer 2
  {1f0c6376-874c-4708-9d44-f9b003e1cd45}, !- Layer 3
  {5cabaaa7-73c7-4b16-9eb5-42e2de004f29}; !- Layer 4

OS:Surface,
  {4447b27a-ea05-4c8a-ac8a-fa1517c729fb}, !- Handle
  Wall2,                                  !- Name
  Wall,                                   !- Surface Type
  {5d2d9449-0bf2-402f-b4da-73023d960c3b}, !- Construction Name
  {6a8a4fd1-a26e-4d04-b557-bfc55a6dc490}, !- Space Name
  Outdoors,                               !- Outside Boundary Condition
  ,                                       !- Outside Boundary Condition Object
  SunExposed,                             !- Sun Exposure
  WindExposed,                            !- Wind Exposure
  ,                                       !- View Factor to Ground
  ,                                       !- Number of Vertices
  36.6795186769231, -25.4732249435897, 0, !- X,Y,Z Vertex 1 {m}
  36.6795186769231, -25.4732249435897, 2.4384, !- X,Y,Z Vertex 2 {m}
  36.6795186769231, -32.3807549435897, 2.4384, !- X,Y,Z Vertex 3 {m}
  36.6795186769231, -32.3807549435897, 0; !- X,Y,Z Vertex 4 {m}

OS:AdditionalProperties,
  {fe1baee8-f5a4-427a-9cc7-580cc571e122}, !- Handle
  {4447b27a-ea05-4c8a-ac8a-fa1517c729fb}, !- Object Name
  Length,                                 !- Feature Name 1
  Double,                                 !- Feature Data Type 1
  22.662500000000001,                     !- Feature Value 1
  Azimuth,                                !- Feature Name 2