
OS:Version,
  {eba57f21-65bd-4e85-883e-ced373f2d933}, !- Handle
  3.9.0;                                  !- Version Identifier

OS:SimulationControl,
  {736467ed-013e-4ec9-a3a8-758acb707a9f}, !- Handle
  ,                                       !- Do Zone Sizing Calculation
  ,                                       !- Do System Sizing Calculation
  ,                                       !- Do Plant Sizing Calculation
  No;                                     !- Run Simulation for Sizing Periods

OS:Timestep,
  {02b3bd7f-744d-4c8d-9d5d-007e6071fd8b}, !- Handle
  1;                                      !- Number of Timesteps per Hour

OS:ShadowCalculation,
  {66bc196d-7415-4887-818b-4533523f5647}, !- Handle
  PolygonClipping,                        !- Shading Calculation Method
  ,                                       !- Shading Calculation Update Frequency Method
  20,                                     !- Shading Calculation Update Frequency
  200,                                    !- Maximum Figures in Shadow Overlap Calculations
  ,                                       !- Polygon Clipping Algorithm
  512,                                    !- Pixel Counting Resolution
  ,                                       !- Sky Diffuse Modeling Algorithm
  No,                                     !- Output External Shading Calculation Results
  No,                                     !- Disable Self-Shading Within Shading Zone Groups
  No;                                     !- Disable Self-Shading From Shading Zone Groups to Other Zones

OS:SurfaceConvectionAlgorithm:Outside,
  {35aae23d-a849-4f91-8400-b26d90558ddb}, !- Handle
  DOE-2;                                  !- Algorithm

OS:SurfaceConvectionAlgorithm:Inside,
  {48c37006-2c51-40a9-b334-3cb0084804cd}, !- Handle
  TARP;                                   !- Algorithm

OS:ZoneCapacitanceMultiplier:ResearchSpecial,
  {fd2017f9-35f4-4b9d-b05b-ae28fd209314}, !- Handle
  7,                                      !- Temperature Capacity Multiplier
  15,                                     !- Humidity Capacity Multiplier
  ;                                       !- Carbon Dioxide Capacity Multiplier

OS:ConvergenceLimits,
  {de43904a-4711-4b94-989c-96295c5655d7}, !- Handle
  0;                                      !- Minimum System Timestep {minutes}

OS:RunPeriod,
  {4767b08b-2fb1-4667-8c17-6b9e1d20891b}, !- Handle
  Run Period 1,                           !- Name
  1,                                      !- Begin Month
  1,                                      !- Begin Day of Month
  12,                                     !- End Month
  31,                                     !- End Day of Month
  ,                                       !- Use Weather File Holidays and Special Days
  ,                                       !- Use Weather File Daylight Saving Period
  ,                                       !- Apply Weekend Holiday Rule
  ,                                       !- Use Weather File Rain Indicators
  ,                                       !- Use Weather File Snow Indicators
  ;                                       !- Number of Times Runperiod to be Repeated

OS:PerformancePrecisionTradeoffs,
  {07a4bf14-4254-4680-b0ae-4be7dc8295ac}, !- Handle
  ,                                       !- Use Coil Direct Solutions
  CarrollMRT;                             !- Zone Radiant Exchange Algorithm

OS:WeatherFile,
  {799b925d-53a6-4d56-9187-b7c2a22bbb4a}, !- Handle
  Buffalo Niagara Intl Ap,                !- City
  NY,                                     !- State Province Region
  USA,                                    !- Country
  TMY3,                                   !- Data Source
  725280,                                 !- WMO Number
  42.93,                                  !- Latitude {deg}
  -78.73,                                 !- Longitude {deg}
  -5,                                     !- Time Zone {hr}
  215,                                    !- Elevation {m}
  /Users/nmoore/github/urbanopt-example-geojson-project/example_project/weather/USA_NY_Buffalo-Greater.Buffalo.Intl.AP.725280_TMY3.epw, !- Url
  6B50E0FF,                               !- Checksum
  ,                                       !- Start Date Actual Year
  Sunday;                                 !- Start Day of Week

OS:YearDescription,
  {b3ab9094-3d60-460d-b1f5-ea993eb9f800}, !- Handle
  2007,                                   !- Calendar Year
  ,                                       !- Day of Week for Start Day
  ;                                       !- Is Leap Year

OS:Site,
  {a5c5fa46-3329-41f1-84af-3a0be98231bb}, !- Handle
  Buffalo Niagara Intl Ap_NY,             !- Name
  42.93,                                  !- Latitude {deg}
  -78.73,                                 !- Longitude {deg}
  -5,                                     !- Time Zone {hr}
  215,                                    !- Elevation {m}
  Suburbs,                                !- Terrain
  Yes;                                    !- Keep Site Location Information

OS:RunPeriodControl:DaylightSavingTime,
  {a53af091-b354-4c09-953a-0bb7929e65ff}, !- Handle
  Mar 12,                                 !- Start Date
  Nov 5;                                  !- End Date

OS:Site:GroundTemperature:Shallow,
  {26b7b197-528a-4229-a3de-5752708ab662}, !- Handle
  4.30207395723828,                       !- January Surface Ground Temperature {C}
  2.29327249652502,                       !- February Surface Ground Temperature {C}
  2.13240047156047,                       !- March Surface Ground Temperature {C}
  3.08567940719286,                       !- April Surface Ground Temperature {C}
  6.91256312497526,                       !- May Surface Ground Temperature {C}
  10.7216195949507,                       !- June Surface Ground Temperature {C}
  14.0238679822574,                       !- July Surface Ground Temperature {C}
  16.1157611184724,                       !- August Surface Ground Temperature {C}
  16.2934789303462,                       !- September Surface Ground Temperature {C}
  14.5920754632847,                       !- October Surface Ground Temperature {C}
  11.374036348653,                        !- November Surface Ground Temperature {C}
  7.68182621661674;                       !- December Surface Ground Temperature {C}

OS:ThermalZone,
  {b303dbaf-0e11-4555-941b-35a8d65f8832}, !- Handle
  conditioned space,                      !- Name
  1,                                      !- Multiplier
  ,                                       !- Ceiling Height {m}
  692.06373070848,                        !- Volume {m3}
  ,                                       !- Floor Area {m2}
  ,                                       !- Zone Inside Convection Algorithm
  ,                                       !- Zone Outside Convection Algorithm
  ,                                       !- Zone Conditioning Equipment List Name
  {50f78ce4-b8c8-452c-92b4-12c0e557fd6a}, !- Zone Air Inlet Port List
  {6c00ba99-f1b0-4d44-8187-cb968c5f8425}, !- Zone Air Exhaust Port List
  {0d6c4b58-adc9-4cd4-b034-14f370beecf4}, !- Zone Air Node Name
  {82e9e01f-fb2d-44d7-ba51-80efdf3f9056}, !- Zone Return Air Port List
  ,                                       !- Primary Daylighting Control Name
  ,                                       !- Fraction of Zone Controlled by Primary Daylighting Control
  ,                                       !- Secondary Daylighting Control Name
  ,                                       !- Fraction of Zone Controlled by Secondary Daylighting Control
  ,                                       !- Illuminance Map Name
  ,                                       !- Group Rendering Name
  {cae5c0d1-4367-45b8-8fc2-01286699c233}, !- Thermostat Name
  No;                                     !- Use Ideal Air Loads

OS:Node,
  {5cb94b8f-645f-4aec-b009-3d82945fbd9c}, !- Handle
  Node 1,                                 !- Name
  {0d6c4b58-adc9-4cd4-b034-14f370beecf4}, !- Inlet Port
  ;                                       !- Outlet Port

OS:Connection,
  {0d6c4b58-adc9-4cd4-b034-14f370beecf4}, !- Handle
  {b303dbaf-0e11-4555-941b-35a8d65f8832}, !- Source Object
  11,                                     !- Outlet Port
  {5cb94b8f-645f-4aec-b009-3d82945fbd9c}, !- Target Object
  2;                                      !- Inlet Port

OS:PortList,
  {50f78ce4-b8c8-452c-92b4-12c0e557fd6a}, !- Handle
  {b303dbaf-0e11-4555-941b-35a8d65f8832}, !- HVAC Component
  {cebac428-cfa7-4232-8837-66c4dc51c786}; !- Port 1

OS:PortList,
  {6c00ba99-f1b0-4d44-8187-cb968c5f8425}, !- Handle
  {b303dbaf-0e11-4555-941b-35a8d65f8832}; !- HVAC Component

OS:PortList,
  {82e9e01f-fb2d-44d7-ba51-80efdf3f9056}, !- Handle
  {b303dbaf-0e11-4555-941b-35a8d65f8832}, !- HVAC Component
  {7e3e179e-4839-47b4-b568-bbb66d7ecab5}; !- Port 1

OS:Sizing:Zone,
  {01bd329d-b713-4d92-99cb-1e90f27702d7}, !- Handle
  {b303dbaf-0e11-4555-941b-35a8d65f8832}, !- Zone or ZoneList Name
  SupplyAirTemperature,                   !- Zone Cooling Design Supply Air Temperature Input Method
  14,                                     !- Zone Cooling Design Supply Air Temperature {C}
  11.11,                                  !- Zone Cooling Design Supply Air Temperature Difference {deltaC}
  SupplyAirTemperature,                   !- Zone Heating Design Supply Air Temperature Input Method
  40,                                     !- Zone Heating Design Supply Air Temperature {C}
  11.11,                                  !- Zone Heating Design Supply Air Temperature Difference {deltaC}
  0.0085,                                 !- Zone Cooling Design Supply Air Humidity Ratio {kg-H2O/kg-air}
  0.008,                                  !- Zone Heating Design Supply Air Humidity Ratio {kg-H2O/kg-air}
  ,                                       !- Zone Heating Sizing Factor
  ,                                       !- Zone Cooling Sizing Factor
  DesignDay,                              !- Cooling Design Air Flow Method
  ,                                       !- Cooling Design Air Flow Rate {m3/s}
  ,                                       !- Cooling Minimum Air Flow per Zone Floor Area {m3/s-m2}
  ,                                       !- Cooling Minimum Air Flow {m3/s}
  ,                                       !- Cooling Minimum Air Flow Fraction
  DesignDay,                              !- Heating Design Air Flow Method
  ,                                       !- Heating Design Air Flow Rate {m3/s}
  ,                                       !- Heating Maximum Air Flow per Zone Floor Area {m3/s-m2}
  ,                                       !- Heating Maximum Air Flow {m3/s}
  ,                                       !- Heating Maximum Air Flow Fraction
  No,                                     !- Account for Dedicated Outdoor Air System
  NeutralSupplyAir,                       !- Dedicated Outdoor Air System Control Strategy
  autosize,                               !- Dedicated Outdoor Air Low Setpoint Temperature for Design {C}
  autosize,                               !- Dedicated Outdoor Air High Setpoint Temperature for Design {C}
  Sensible Load Only No Latent Load,      !- Zone Load Sizing Method
  HumidityRatioDifference,                !- Zone Latent Cooling Design Supply Air Humidity Ratio Input Method
  ,                                       !- Zone Dehumidification Design Supply Air Humidity Ratio {kgWater/kgDryAir}
  0.005,                                  !- Zone Cooling Design Supply Air Humidity Ratio Difference {kgWater/kgDryAir}
  HumidityRatioDifference,                !- Zone Latent Heating Design Supply Air Humidity Ratio Input Method
  ,                                       !- Zone Humidification Design Supply Air Humidity Ratio {kgWater/kgDryAir}
  0.005,                                  !- Zone Humidification Design Supply Air Humidity Ratio Difference {kgWater/kgDryAir}
  ,                                       !- Zone Humidistat Dehumidification Set Point Schedule Name
  ,                                       !- Zone Humidistat Humidification Set Point Schedule Name
  ,                                       !- Design Zone Air Distribution Effectiveness in Cooling Mode
  ,                                       !- Design Zone Air Distribution Effectiveness in Heating Mode
  ,                                       !- Design Zone Secondary Recirculation Fraction {dimensionless}
  ,                                       !- Design Minimum Zone Ventilation Efficiency {dimensionless}
  Coincident;                             !- Sizing Option

OS:ZoneHVAC:EquipmentList,
  {2ec60e58-7042-4388-a00b-5496a9a13995}, !- Handle
  Zone HVAC Equipment List 1,             !- Name
  {b303dbaf-0e11-4555-941b-35a8d65f8832}, !- Thermal Zone
  ,                                       !- Load Distribution Scheme
  {2a6ec96b-79b6-4395-9a7c-ab629ff7c983}, !- Zone Equipment 1
  1,                                      !- Zone Equipment Cooling Sequence 1
  1,                                      !- Zone Equipment Heating or No-Load Sequence 1
  {00ed461e-6527-492c-86fc-b159ea574a83}, !- Zone Equipment Sequential Cooling Fraction Schedule Name 1
  {0ec52f2c-d868-49fc-8a0c-940f5b02d9d6}; !- Zone Equipment Sequential Heating Fraction Schedule Name 1

OS:AdditionalProperties,
  {2d732f68-7d81-40e1-bf13-2eddfe4e2280}, !- Handle
  {b303dbaf-0e11-4555-941b-35a8d65f8832}, !- Object Name
  ObjectType,                             !- Feature Name 1
  String,                                 !- Feature Data Type 1
  conditioned space;                      !- Feature Value 1

OS:Space,
  {7d19b758-0a64-46e4-ad00-750c04e712f8}, !- Handle
  conditioned space 1,                    !- Name
  ,                                       !- Space Type Name
  ,                                       !- Default Construction Set Name
  ,                                       !- Default Schedule Set Name
  ,                                       !- Direction of Relative North {deg}
  ,                                       !- X Origin {m}
  ,                                       !- Y Origin {m}
  ,                                       !- Z Origin {m}
  ,                                       !- Building Story Name
  {b303dbaf-0e11-4555-941b-35a8d65f8832}, !- Thermal Zone Name
  ,                                       !- Part of Total Floor Area
  ,                                       !- Design Specification Outdoor Air Object Name
  ,                                       !- Building Unit Name
  692.06373070848;                        !- Volume {m3}

OS:Schedule:Ruleset,
  {ea9e69f2-bca9-478c-aa65-75c1c97dd4f2}, !- Handle
  heating setpoint,                       !- Name
  {187eb41e-2a68-49d8-bdc2-0e200bde7d43}, !- Schedule Type Limits Name
  {a00ad08b-cbfd-4098-9a70-0dbf6d35fb38}; !- Default Day Schedule Name

OS:Schedule:Day,
  {a00ad08b-cbfd-4098-9a70-0dbf6d35fb38}, !- Handle
  heating setpoint default day,           !- Name
  {187eb41e-2a68-49d8-bdc2-0e200bde7d43}, !- Schedule Type Limits Name
  ,                                       !- Interpolate to Timestep
  24,                                     !- Hour 1
  0,                                      !- Minute 1
  0;                                      !- Value Until Time 1

OS:Schedule:Rule,
  {253eee81-a7d5-443d-b005-15355f539733}, !- Handle
  heating setpoint allday rule,           !- Name
  {ea9e69f2-bca9-478c-aa65-75c1c97dd4f2}, !- Schedule Ruleset Name
  0,                                      !- Rule Order
  {56dcbb55-c516-4be0-96ea-8c3ea056e7fe}, !- Day Schedule Name
  Yes,                                    !- Apply Sunday
  Yes,                                    !- Apply Monday
  Yes,                                    !- Apply Tuesday
  Yes,                                    !- Apply Wednesday
  Yes,                                    !- Apply Thursday
  Yes,                                    !- Apply Friday
  Yes,                                    !- Apply Saturday
  DateRange,                              !- Date Specification Type
  1,                                      !- Start Month
  1,                                      !- Start Day
  12,                                     !- End Month
  31;                                     !- End Day

OS:Schedule:Day,
  {56dcbb55-c516-4be0-96ea-8c3ea056e7fe}, !- Handle
  heating setpoint day,                   !- Name
  {187eb41e-2a68-49d8-bdc2-0e200bde7d43}, !- Schedule Type Limits Name
  ,                                       !- Interpolate to Timestep
  24,                                     !- Hour 1
  0,                                      !- Minute 1
  20;                                     !- Value Until Time 1

OS:Schedule:Ruleset,
  {f65175db-7820-4313-89d9-5da126ef8cbe}, !- Handle
  cooling setpoint,                       !- Name
  {187eb41e-2a68-49d8-bdc2-0e200bde7d43}, !- Schedule Type Limits Name
  {00cebacf-f776-4a1d-a059-bf318a4b2cc6}; !- Default Day Schedule Name

OS:Schedule:Day,
  {00cebacf-f776-4a1d-a059-bf318a4b2cc6}, !- Handle
  cooling setpoint default day,           !- Name
  {187eb41e-2a68-49d8-bdc2-0e200bde7d43}, !- Schedule Type Limits Name
  ,                                       !- Interpolate to Timestep
  24,                                     !- Hour 1
  0,                                      !- Minute 1
  0;                                      !- Value Until Time 1

OS:Schedule:Rule,
  {d0e0d646-abc5-4332-a171-c038d104e007}, !- Handle
  cooling setpoint allday rule,           !- Name
  {f65175db-7820-4313-89d9-5da126ef8cbe}, !- Schedule Ruleset Name
  0,                                      !- Rule Order
  {41db4349-05f2-44be-99ec-72b5c293f865}, !- Day Schedule Name
  Yes,                                    !- Apply Sunday
  Yes,                                    !- Apply Monday
  Yes,                                    !- Apply Tuesday
  Yes,                                    !- Apply Wednesday
  Yes,                                    !- Apply Thursday
  Yes,                                    !- Apply Friday
  Yes,                                    !- Apply Saturday
  DateRange,                              !- Date Specification Type
  1,                                      !- Start Month
  1,                                      !- Start Day
  12,                                     !- End Month
  31;                                     !- End Day

OS:Schedule:Day,
  {41db4349-05f2-44be-99ec-72b5c293f865}, !- Handle
  cooling setpoint day,                   !- Name
  {187eb41e-2a68-49d8-bdc2-0e200bde7d43}, !- Schedule Type Limits Name
  ,                                       !- Interpolate to Timestep
  24,                                     !- Hour 1
  0,                                      !- Minute 1
  25.5555555555556;                       !- Value Until Time 1

OS:ThermostatSetpoint:DualSetpoint,
  {cae5c0d1-4367-45b8-8fc2-01286699c233}, !- Handle
  conditioned space temperature setpoint, !- Name
  {ea9e69f2-bca9-478c-aa65-75c1c97dd4f2}, !- Heating Setpoint Temperature Schedule Name
  {f65175db-7820-4313-89d9-5da126ef8cbe}, !- Cooling Setpoint Temperature Schedule Name
  0;                                      !- Temperature Difference Between Cutout And Setpoint {deltaC}

OS:ScheduleTypeLimits,
  {187eb41e-2a68-49d8-bdc2-0e200bde7d43}, !- Handle
  Temperature,                            !- Name
  ,                                       !- Lower Limit Value
  ,                                       !- Upper Limit Value
  Continuous,                             !- Numeric Type
  Temperature;                            !- Unit Type

OS:Surface,
  {9dc45af5-d6c2-4f68-8b01-0c7dc311eb18}, !- Handle
  Roof1,                                  !- Name
  RoofCeiling,                            !- Surface Type
  {d44d43c7-5ad3-47e1-98c5-ce6297d78440}, !- Construction Name
  {7d19b758-0a64-46e4-ad00-750c04e712f8}, !- Space Name
  Outdoors,                               !- Outside Boundary Condition
  ,                                       !- Outside Boundary Condition Object
  SunExposed,                             !- Sun Exposure
  WindExposed,                            !- Wind Exposure
  ,                                       !- View Factor to Ground
  ,                                       !- Number of Vertices
  -5.95628646053898, 5.95628646053898, 2.4384, !- X,Y,Z Vertex 1 {m}
  -5.95628646053898, -5.95628646053898, 2.4384, !- X,Y,Z Vertex 2 {m}
  5.95628646053898, -5.95628646053898, 2.4384, !- X,Y,Z Vertex 3 {m}
  5.95628646053898, 5.95628646053898, 2.4384; !- X,Y,Z Vertex 4 {m}

OS:AdditionalProperties,
  {e4baa989-ee7f-4d41-92ba-92b50b0a2df4}, !- Handle
  {9dc45af5-d6c2-4f68-8b01-0c7dc311eb18}, !- Object Name
  Length,                                 !- Feature Name 1
  Double,                                 !- Feature Data Type 1
  39.083244491725608,                     !- Feature Value 1
  Width,                                  !- Feature Name 2
  Double,                                 !- Feature Data Type 2
  39.083244491725608,                     !- Feature Value 2
  Azimuth,                                !- Feature Name 3
  Integer,                                !- Feature Data Type 3
  0,                                      !- Feature Value 3
  Tilt,                                   !- Feature Name 4
  Double,                                 !- Feature Data Type 4
  0,                                      !- Feature Value 4
  SurfaceType,                            !- Feature Name 5
  String,                                 !- Feature Data Type 5
  Roof;                                   !- Feature Value 5

OS:Material,
  {1202a985-bb8c-4e0a-aa71-f54dd405fe9b}, !- Handle
  asphalt or fiberglass shingles,         !- Name
  Rough,                                  !- Roughness
  0.00635,                                !- Thickness {m}
  0.162714,                               !- Conductivity {W/m-K}
  1121.4,                                 !- Density {kg/m3}
  1465.45,                                !- Specific Heat {J/kg-K}
  0.9,                                    !- Thermal Absorptance
  0.85,                                   !- Solar Absorptance
  0.85;                                   !- Visible Absorptance

OS:Material,
  {b612a419-1788-45aa-8105-0b0911ef847d}, !- Handle
  roof stud and cavity,                   !- Name
  Rough,                                  !- Roughness
  0.0889,                                 !- Thickness {m}
  0.491900632004487,                      !- Conductivity {W/m-K}
  50.32683,                               !- Density {kg/m3}
  1063.80987585548,                       !- Specific Heat {J/kg-K}
  0.9,                                    !- Thermal Absorptance
  0.7,                                    !- Solar Absorptance
  0.7;                                    !- Visible Absorptance

OS:Material,
  {0c848888-b16e-4b91-a787-abadc0328ed1}, !- Handle
  gypsum board,                           !- Name
  Rough,                                  !- Roughness
  0.00254,                                !- Thickness {m}
  0.1602906,                              !- Conductivity {W/m-K}
  801,                                    !- Density {kg/m3}
  837.4,                                  !- Specific Heat {J/kg-K}
  0.9,                                    !- Thermal Absorptance
  0.6,                                    !- Solar Absorptance
  0.6;                                    !- Visible Absorptance

OS:Construction,
  {d44d43c7-5ad3-47e1-98c5-ce6297d78440}, !- Handle
  Roof1 construction,                     !- Name
  ,                                       !- Surface Rendering Name
  {1202a985-bb8c-4e0a-aa71-f54dd405fe9b}, !- Layer 1
  {b612a419-1788-45aa-8105-0b0911ef847d}, !- Layer 2
  {0c848888-b16e-4b91-a787-abadc0328ed1}; !- Layer 3

OS:Surface,
  {2fd0632a-a39e-4a1f-8a02-9c45987214a1}, !- Handle
  Wall1,                                  !- Name
  Wall,                                   !- Surface Type
  {63ed88e3-8ea8-474a-8530-105075dbc158}, !- Construction Name
  {7d19b758-0a64-46e4-ad00-750c04e712f8}, !- Space Name
  Outdoors,                               !- Outside Boundary Condition
  ,                                       !- Outside Boundary Condition Object
  SunExposed,                             !- Sun Exposure
  WindExposed,                            !- Wind Exposure
  ,                                       !- View Factor to Ground
  ,                                       !- Number of Vertices
  -35.7504882769231, 36.6795186769231, 0, !- X,Y,Z Vertex 1 {m}
  -35.7504882769231, 36.6795186769231, 2.4384, !- X,Y,Z Vertex 2 {m}
  -21.9354282769231, 36.6795186769231, 2.4384, !- X,Y,Z Vertex 3 {m}
  -21.9354282769231, 36.6795186769231, 0; !- X,Y,Z Vertex 4 {m}

OS:AdditionalProperties,
  {8cfc0f69-d375-4348-9bd6-dbd8abe5d3b0}, !- Handle
  {2fd0632a-a39e-4a1f-8a02-9c45987214a1}, !- Object Name
  Length,                                 !- Feature Name 1
  Double,                                 !- Feature Data Type 1
  45.325000000000003,                     !- Feature Value 1
  Azimuth,                                !- Feature Name 2
  Integer,                                !- Feature Data Type 2
  0,                                      !- Feature Value 2
  Tilt,                                   !- Feature Name 3
  Double,                                 !- Feature Data Type 3
  90,                                     !- Feature Value 3
  SurfaceType,                            !- Feature Name 4
  String,                                 !- Feature Data Type 4
  Wall;                                   !- Feature Value 4

OS:Material,
  {174309c9-c047-4852-b6b2-bf4a613a9422}, !- Handle
  wood siding,                            !- Name
  Rough,                                  !- Roughness
  0.0254,                                 !- Thickness {m}
  0.1024175,                              !- Conductivity {W/m-K}
  544.68,                                 !- Density {kg/m3}
  1172.36,                                !- Specific Heat {J/kg-K}
  0.9,                                    !- Thermal Absorptance
  0.7,                                    !- Solar Absorptance
  0.7;                                    !- Visible Absorptance

OS:Material,
  {d75868ce-4b39-49a8-8001-4d843999dd4c}, !- Handle
  osb sheathing 0.5 in.,                  !- Name
  Rough,                                  !- Roughness
  0.0127,                                 !- Thickness {m}
  0.1154577,                              !- Conductivity {W/m-K}
  512.64,                                 !- Density {kg/m3}
  1214.23,                                !- Specific Heat {J/kg-K}
  0.9,                                    !- Thermal Absorptance
  0.7,                                    !- Solar Absorptance
  0.7;                                    !- Visible Absorptance

OS:Material,
  {6d56ec94-77a1-4fcf-9346-4d7aca87d56f}, !- Handle
  wall stud and cavity,                   !- Name
  Rough,                                  !- Roughness
  0.1397,                                 !- Thickness {m}
  0.0929021674204099,                     !- Conductivity {W/m-K}
  139.0536,                               !- Density {kg/m3}
  1170.23755760369,                       !- Specific Heat {J/kg-K}
  0.9,                                    !- Thermal Absorptance
  0.7,                                    !- Solar Absorptance
  0.7;                                    !- Visible Absorptance

OS:Material,
  {cf1d4f90-a984-446d-a729-844ab8270770}, !- Handle
  gypsum board 1,                         !- Name
  Rough,                                  !- Roughness
  0.0127,                                 !- Thickness {m}
  0.1602906,                              !- Conductivity {W/m-K}
  801,                                    !- Density {kg/m3}
  837.4,                                  !- Specific Heat {J/kg-K}
  0.9,                                    !- Thermal Absorptance
  0.6,                                    !- Solar Absorptance
  0.6;                                    !- Visible Absorptance

OS:Construction,
  {63ed88e3-8ea8-474a-8530-105075dbc158}, !- Handle
  Wall1 construction,                     !- Name
  ,                                       !- Surface Rendering Name
  {174309c9-c047-4852-b6b2-bf4a613a9422}, !- Layer 1
  {d75868ce-4b39-49a8-8001-4d843999dd4c}, !- Layer 2
  {6d56ec94-77a1-4fcf-9346-4d7aca87d56f}, !- Layer 3
  {cf1d4f90-a984-446d-a729-844ab8270770}; !- Layer 4

OS:Surface,
  {7ee1d266-6d93-4ab6-87fb-af6a5322086a}, !- Handle
  Wall2,                                  !- Name
  Wall,                                   !- Surface Type
  {3f23d541-ee76-4466-8b4a-8110d87c0fc7}, !- Construction Name
  {7d19b758-0a64-46e4-ad00-750c04e712f8}, !- Space Name
  Outdoors,                               !- Outside Boundary Condition
  ,                                       !- Outside Boundary Condition Object
  SunExposed,                             !- Sun Exposure
  WindExposed,                            !- Wind Exposure
  ,                                       !- View Factor to Ground
  ,                                       !- Number of Vertices
  36.6795186769231, -25.4732249435897, 0, !- X,Y,Z Vertex 1 {m}
  36.6795186769231, -25.4732249435897, 2.4384, !- X,Y,Z Vertex 2 {m}
  36.6795186769231, -32.3807549435897, 2.4384, !- X,Y,Z Vertex 3 {m}
  36.6795186769231, -32.3807549435897, 0; !- X,Y,Z Vertex 4 {m}

OS:AdditionalProperties,
  {ed0400ae-71cf-4999-8c07-37be7154c139}, !- Handle
  {7ee1d266-6d93-4ab6-87fb-af6a5322086a}, !- Object Name
  Length,                                 !- Feature Name 1
  Double,                                 !- Feature Data Type 1
  22.662500000000001,                     !- Feature Value 1
  Azimuth,                                !- Feature Name 2