
OS:Version,
  {06588133-84a8-46c3-9d8e-6e16c656e768}, !- Handle
  3.9.0;                                  !- Version Identifier

OS:SimulationControl,
  {67687737-631e-4c2a-a726-a9ff80a7ec41}, !- Handle
  ,                                       !- Do Zone Sizing Calculation
  ,                                       !- Do System Sizing Calculation
  ,                                       !- Do Plant Sizing Calculation
  No;                                     !- Run Simulation for Sizing Periods

OS:Timestep,
  {410bc417-3c2d-4a35-a403-e4e22838a514}, !- Handle
  1;                                      !- Number of Timesteps per Hour

OS:ShadowCalculation,
  {720afaf8-c8c9-492a-a374-1dfbd1410982}, !- Handle
  PolygonClipping,                        !- Shading Calculation Method
  ,                                       !- Shading Calculation Update Frequency Method
  20,                                     !- Shading Calculation Update Frequency
  200,                                    !- Maximum Figures in Shadow Overlap Calculations
  ,                                       !- Polygon Clipping Algorithm
  512,                                    !- Pixel Counting Resolution
  ,                                       !- Sky Diffuse Modeling Algorithm
  No,                                     !- Output External Shading Calculation Results
  No,                                     !- Disable Self-Shading Within Shading Zone Groups
  No;                                     !- Disable Self-Shading From Shading Zone Groups to Other Zones

OS:SurfaceConvectionAlgorithm:Outside,
  {f92e011b-e7b0-4051-93a7-ae1d58b6c304}, !- Handle
  DOE-2;                                  !- Algorithm

OS:SurfaceConvectionAlgorithm:Inside,
  {f0a34bd7-3524-47cb-a615-4d4e27783602}, !- Handle
  TARP;                                   !- Algorithm

OS:ZoneCapacitanceMultiplier:ResearchSpecial,
  {ab593de9-55a0-40de-8f85-9007b3ab3d21}, !- Handle
  7,                                      !- Temperature Capacity Multiplier
  15,                                     !- Humidity Capacity Multiplier
  ;                                       !- Carbon Dioxide Capacity Multiplier

OS:ConvergenceLimits,
  {c47897e2-d635-44ef-9eb2-9df4ff4731fb}, !- Handle
  0;                                      !- Minimum System Timestep {minutes}

OS:RunPeriod,
  {796b752d-69b0-4dcc-84d7-885d52621a1f}, !- Handle
  Run Period 1,                           !- Name
  1,                                      !- Begin Month
  1,                                      !- Begin Day of Month
  12,                                     !- End Month
  31,                                     !- End Day of Month
  ,                                       !- Use Weather File Holidays and Special Days
  ,                                       !- Use Weather File Daylight Saving Period
  ,                                       !- Apply Weekend Holiday Rule
  ,                                       !- Use Weather File Rain Indicators
  ,                                       !- Use Weather File Snow Indicators
  ;                                       !- Number of Times Runperiod to be Repeated

OS:PerformancePrecisionTradeoffs,
  {53c03176-1b66-43ed-8936-798e28e53f10}, !- Handle
  ,                                       !- Use Coil Direct Solutions
  CarrollMRT;                             !- Zone Radiant Exchange Algorithm

OS:WeatherFile,
  {b747499f-c80d-4ba8-ae7c-b8919f9a0970}, !- Handle
  Buffalo Niagara Intl Ap,                !- City
  NY,                                     !- State Province Region
  USA,                                    !- Country
  TMY3,                                   !- Data Source
  725280,                                 !- WMO Number
  42.93,                                  !- Latitude {deg}
  -78.73,                                 !- Longitude {deg}
  -5,                                     !- Time Zone {hr}
  215,                                    !- Elevation {m}
  /Users/nmoore/github/urbanopt-example-geojson-project/example_project/weather/USA_NY_Buffalo-Greater.Buffalo.Intl.AP.725280_TMY3.epw, !- Url
  6B50E0FF,                               !- Checksum
  ,                                       !- Start Date Actual Year
  Sunday;                                 !- Start Day of Week

OS:YearDescription,
  {8b44f150-6555-43d8-9bbb-98f75bfda690}, !- Handle
  2007,                                   !- Calendar Year
  ,                                       !- Day of Week for Start Day
  ;                                       !- Is Leap Year

OS:Site,
  {cd2c0431-e7f8-4eca-a983-579f3807dc71}, !- Handle
  Buffalo Niagara Intl Ap_NY,             !- Name
  42.93,                                  !- Latitude {deg}
  -78.73,                                 !- Longitude {deg}
  -5,                                     !- Time Zone {hr}
  215,                                    !- Elevation {m}
  Suburbs,                                !- Terrain
  Yes;                                    !- Keep Site Location Information

OS:RunPeriodControl:DaylightSavingTime,
  {45e1d810-3629-4304-a765-ea7cfb7d306c}, !- Handle
  Mar 12,                                 !- Start Date
  Nov 5;                                  !- End Date

OS:Site:GroundTemperature:Shallow,
  {1c51c884-ee73-4275-ab84-1a529e96e0ba}, !- Handle
  4.30207395723828,                       !- January Surface Ground Temperature {C}
  2.29327249652502,                       !- February Surface Ground Temperature {C}
  2.13240047156047,                       !- March Surface Ground Temperature {C}
  3.08567940719286,                       !- April Surface Ground Temperature {C}
  6.91256312497526,                       !- May Surface Ground Temperature {C}
  10.7216195949507,                       !- June Surface Ground Temperature {C}
  14.0238679822574,                       !- July Surface Ground Temperature {C}
  16.1157611184724,                       !- August Surface Ground Temperature {C}
  16.2934789303462,                       !- September Surface Ground Temperature {C}
  14.5920754632847,                       !- October Surface Ground Temperature {C}
  11.374036348653,                        !- November Surface Ground Temperature {C}
  7.68182621661674;                       !- December Surface Ground Temperature {C}

OS:ThermalZone,
  {d7a4e626-4f82-49a0-845e-b74f8ec8e143}, !- Handle
  conditioned space,                      !- Name
  1,                                      !- Multiplier
  ,                                       !- Ceiling Height {m}
  692.06373070848,                        !- Volume {m3}
  ,                                       !- Floor Area {m2}
  ,                                       !- Zone Inside Convection Algorithm
  ,                                       !- Zone Outside Convection Algorithm
  ,                                       !- Zone Conditioning Equipment List Name
  {3e6e27be-614f-418e-a73a-6743e20d62b4}, !- Zone Air Inlet Port List
  {397c0178-93e3-42b7-856d-28b369447ec9}, !- Zone Air Exhaust Port List
  {bb0b7d1f-dc2a-4c5d-88a1-c453206a0510}, !- Zone Air Node Name
  {2da1e483-1912-4b12-87cd-616de3b4debb}, !- Zone Return Air Port List
  ,                                       !- Primary Daylighting Control Name
  ,                                       !- Fraction of Zone Controlled by Primary Daylighting Control
  ,                                       !- Secondary Daylighting Control Name
  ,                                       !- Fraction of Zone Controlled by Secondary Daylighting Control
  ,                                       !- Illuminance Map Name
  ,                                       !- Group Rendering Name
  {238dd4b2-3ca6-4929-b7be-fe864c7b6e6d}, !- Thermostat Name
  No;                                     !- Use Ideal Air Loads

OS:Node,
  {4e0c9a2f-e3a4-44f0-94d9-253b27e0c239}, !- Handle
  Node 1,                                 !- Name
  {bb0b7d1f-dc2a-4c5d-88a1-c453206a0510}, !- Inlet Port
  ;                                       !- Outlet Port

OS:Connection,
  {bb0b7d1f-dc2a-4c5d-88a1-c453206a0510}, !- Handle
  {d7a4e626-4f82-49a0-845e-b74f8ec8e143}, !- Source Object
  11,                                     !- Outlet Port
  {4e0c9a2f-e3a4-44f0-94d9-253b27e0c239}, !- Target Object
  2;                                      !- Inlet Port

OS:PortList,
  {3e6e27be-614f-418e-a73a-6743e20d62b4}, !- Handle
  {d7a4e626-4f82-49a0-845e-b74f8ec8e143}, !- HVAC Component
  {e874c4f5-1820-49dd-8069-20b013619181}; !- Port 1

OS:PortList,
  {397c0178-93e3-42b7-856d-28b369447ec9}, !- Handle
  {d7a4e626-4f82-49a0-845e-b74f8ec8e143}; !- HVAC Component

OS:PortList,
  {2da1e483-1912-4b12-87cd-616de3b4debb}, !- Handle
  {d7a4e626-4f82-49a0-845e-b74f8ec8e143}, !- HVAC Component
  {5afa38ab-9e6c-417c-b8cf-13b619e3531d}; !- Port 1

OS:Sizing:Zone,
  {85611528-78d7-4283-be4e-c5c7a684c2fa}, !- Handle
  {d7a4e626-4f82-49a0-845e-b74f8ec8e143}, !- Zone or ZoneList Name
  SupplyAirTemperature,                   !- Zone Cooling Design Supply Air Temperature Input Method
  14,                                     !- Zone Cooling Design Supply Air Temperature {C}
  11.11,                                  !- Zone Cooling Design Supply Air Temperature Difference {deltaC}
  SupplyAirTemperature,                   !- Zone Heating Design Supply Air Temperature Input Method
  40,                                     !- Zone Heating Design Supply Air Temperature {C}
  11.11,                                  !- Zone Heating Design Supply Air Temperature Difference {deltaC}
  0.0085,                                 !- Zone Cooling Design Supply Air Humidity Ratio {kg-H2O/kg-air}
  0.008,                                  !- Zone Heating Design Supply Air Humidity Ratio {kg-H2O/kg-air}
  ,                                       !- Zone Heating Sizing Factor
  ,                                       !- Zone Cooling Sizing Factor
  DesignDay,                              !- Cooling Design Air Flow Method
  ,                                       !- Cooling Design Air Flow Rate {m3/s}
  ,                                       !- Cooling Minimum Air Flow per Zone Floor Area {m3/s-m2}
  ,                                       !- Cooling Minimum Air Flow {m3/s}
  ,                                       !- Cooling Minimum Air Flow Fraction
  DesignDay,                              !- Heating Design Air Flow Method
  ,                                       !- Heating Design Air Flow Rate {m3/s}
  ,                                       !- Heating Maximum Air Flow per Zone Floor Area {m3/s-m2}
  ,                                       !- Heating Maximum Air Flow {m3/s}
  ,                                       !- Heating Maximum Air Flow Fraction
  No,                                     !- Account for Dedicated Outdoor Air System
  NeutralSupplyAir,                       !- Dedicated Outdoor Air System Control Strategy
  autosize,                               !- Dedicated Outdoor Air Low Setpoint Temperature for Design {C}
  autosize,                               !- Dedicated Outdoor Air High Setpoint Temperature for Design {C}
  Sensible Load Only No Latent Load,      !- Zone Load Sizing Method
  HumidityRatioDifference,                !- Zone Latent Cooling Design Supply Air Humidity Ratio Input Method
  ,                                       !- Zone Dehumidification Design Supply Air Humidity Ratio {kgWater/kgDryAir}
  0.005,                                  !- Zone Cooling Design Supply Air Humidity Ratio Difference {kgWater/kgDryAir}
  HumidityRatioDifference,                !- Zone Latent Heating Design Supply Air Humidity Ratio Input Method
  ,                                       !- Zone Humidification Design Supply Air Humidity Ratio {kgWater/kgDryAir}
  0.005,                                  !- Zone Humidification Design Supply Air Humidity Ratio Difference {kgWater/kgDryAir}
  ,                                       !- Zone Humidistat Dehumidification Set Point Schedule Name
  ,                                       !- Zone Humidistat Humidification Set Point Schedule Name
  ,                                       !- Design Zone Air Distribution Effectiveness in Cooling Mode
  ,                                       !- Design Zone Air Distribution Effectiveness in Heating Mode
  ,                                       !- Design Zone Secondary Recirculation Fraction {dimensionless}
  ,                                       !- Design Minimum Zone Ventilation Efficiency {dimensionless}
  Coincident;                             !- Sizing Option

OS:ZoneHVAC:EquipmentList,
  {1b0d5cc2-b9ee-4528-abab-e1ee13eb01d7}, !- Handle
  Zone HVAC Equipment List 1,             !- Name
  {d7a4e626-4f82-49a0-845e-b74f8ec8e143}, !- Thermal Zone
  ,                                       !- Load Distribution Scheme
  {4c81179e-c235-49e6-b719-d36dd2fd9354}, !- Zone Equipment 1
  1,                                      !- Zone Equipment Cooling Sequence 1
  1,                                      !- Zone Equipment Heating or No-Load Sequence 1
  {d2d0fa57-1ec1-4eb0-817f-6d256f911d4e}, !- Zone Equipment Sequential Cooling Fraction Schedule Name 1
  {24262a06-119c-4462-9104-16a130583d6e}; !- Zone Equipment Sequential Heating Fraction Schedule Name 1

OS:AdditionalProperties,
  {aef6d99e-2d18-40a5-901f-428f72ddd984}, !- Handle
  {d7a4e626-4f82-49a0-845e-b74f8ec8e143}, !- Object Name
  ObjectType,                             !- Feature Name 1
  String,                                 !- Feature Data Type 1
  conditioned space;                      !- Feature Value 1

OS:Space,
  {db637681-fc84-49a0-8e2e-cc5d40b8fa1c}, !- Handle
  conditioned space 1,                    !- Name
  ,                                       !- Space Type Name
  ,                                       !- Default Construction Set Name
  ,                                       !- Default Schedule Set Name
  ,                                       !- Direction of Relative North {deg}
  ,                                       !- X Origin {m}
  ,                                       !- Y Origin {m}
  ,                                       !- Z Origin {m}
  ,                                       !- Building Story Name
  {d7a4e626-4f82-49a0-845e-b74f8ec8e143}, !- Thermal Zone Name
  ,                                       !- Part of Total Floor Area
  ,                                       !- Design Specification Outdoor Air Object Name
  ,                                       !- Building Unit Name
  692.06373070848;                        !- Volume {m3}

OS:Schedule:Ruleset,
  {0d363ea8-f61b-4422-931f-cdce185c6772}, !- Handle
  heating setpoint,                       !- Name
  {15743c5c-c5ee-4dd1-b034-cb0f35a17f14}, !- Schedule Type Limits Name
  {1104cfd4-2fb4-4b45-a3a3-0f69bed454a0}; !- Default Day Schedule Name

OS:Schedule:Day,
  {1104cfd4-2fb4-4b45-a3a3-0f69bed454a0}, !- Handle
  heating setpoint default day,           !- Name
  {15743c5c-c5ee-4dd1-b034-cb0f35a17f14}, !- Schedule Type Limits Name
  ,                                       !- Interpolate to Timestep
  24,                                     !- Hour 1
  0,                                      !- Minute 1
  0;                                      !- Value Until Time 1

OS:Schedule:Rule,
  {69c92949-3079-4bed-a6b2-0f34371007d5}, !- Handle
  heating setpoint allday rule,           !- Name
  {0d363ea8-f61b-4422-931f-cdce185c6772}, !- Schedule Ruleset Name
  0,                                      !- Rule Order
  {cf912416-20a6-4a63-9226-f36b876441cf}, !- Day Schedule Name
  Yes,                                    !- Apply Sunday
  Yes,                                    !- Apply Monday
  Yes,                                    !- Apply Tuesday
  Yes,                                    !- Apply Wednesday
  Yes,                                    !- Apply Thursday
  Yes,                                    !- Apply Friday
  Yes,                                    !- Apply Saturday
  DateRange,                              !- Date Specification Type
  1,                                      !- Start Month
  1,                                      !- Start Day
  12,                                     !- End Month
  31;                                     !- End Day

OS:Schedule:Day,
  {cf912416-20a6-4a63-9226-f36b876441cf}, !- Handle
  heating setpoint day,                   !- Name
  {15743c5c-c5ee-4dd1-b034-cb0f35a17f14}, !- Schedule Type Limits Name
  ,                                       !- Interpolate to Timestep
  24,                                     !- Hour 1
  0,                                      !- Minute 1
  20;                                     !- Value Until Time 1

OS:Schedule:Ruleset,
  {84a47e40-0a6d-4faf-bf1c-ed3a9ce85157}, !- Handle
  cooling setpoint,                       !- Name
  {15743c5c-c5ee-4dd1-b034-cb0f35a17f14}, !- Schedule Type Limits Name
  {4357d562-ce6a-4a9b-a7fb-ae04a6b7d523}; !- Default Day Schedule Name

OS:Schedule:Day,
  {4357d562-ce6a-4a9b-a7fb-ae04a6b7d523}, !- Handle
  cooling setpoint default day,           !- Name
  {15743c5c-c5ee-4dd1-b034-cb0f35a17f14}, !- Schedule Type Limits Name
  ,                                       !- Interpolate to Timestep
  24,                                     !- Hour 1
  0,                                      !- Minute 1
  0;                                      !- Value Until Time 1

OS:Schedule:Rule,
  {10de542f-8d1e-4b44-bc01-fe454b1982f5}, !- Handle
  cooling setpoint allday rule,           !- Name
  {84a47e40-0a6d-4faf-bf1c-ed3a9ce85157}, !- Schedule Ruleset Name
  0,                                      !- Rule Order
  {cce5b98a-b09f-40c2-942f-29b356437e97}, !- Day Schedule Name
  Yes,                                    !- Apply Sunday
  Yes,                                    !- Apply Monday
  Yes,                                    !- Apply Tuesday
  Yes,                                    !- Apply Wednesday
  Yes,                                    !- Apply Thursday
  Yes,                                    !- Apply Friday
  Yes,                                    !- Apply Saturday
  DateRange,                              !- Date Specification Type
  1,                                      !- Start Month
  1,                                      !- Start Day
  12,                                     !- End Month
  31;                                     !- End Day

OS:Schedule:Day,
  {cce5b98a-b09f-40c2-942f-29b356437e97}, !- Handle
  cooling setpoint day,                   !- Name
  {15743c5c-c5ee-4dd1-b034-cb0f35a17f14}, !- Schedule Type Limits Name
  ,                                       !- Interpolate to Timestep
  24,                                     !- Hour 1
  0,                                      !- Minute 1
  25.5555555555556;                       !- Value Until Time 1

OS:ThermostatSetpoint:DualSetpoint,
  {238dd4b2-3ca6-4929-b7be-fe864c7b6e6d}, !- Handle
  conditioned space temperature setpoint, !- Name
  {0d363ea8-f61b-4422-931f-cdce185c6772}, !- Heating Setpoint Temperature Schedule Name
  {84a47e40-0a6d-4faf-bf1c-ed3a9ce85157}, !- Cooling Setpoint Temperature Schedule Name
  0;                                      !- Temperature Difference Between Cutout And Setpoint {deltaC}

OS:ScheduleTypeLimits,
  {15743c5c-c5ee-4dd1-b034-cb0f35a17f14}, !- Handle
  Temperature,                            !- Name
  ,                                       !- Lower Limit Value
  ,                                       !- Upper Limit Value
  Continuous,                             !- Numeric Type
  Temperature;                            !- Unit Type

OS:Surface,
  {8f29f7b1-cd4b-4fa4-9d4b-dbee7084fb8a}, !- Handle
  Roof1,                                  !- Name
  RoofCeiling,                            !- Surface Type
  {78d16fce-99a4-4171-88c2-0d4281f2ddb8}, !- Construction Name
  {4b515880-e487-4494-a664-c03c88fad66a}, !- Space Name
  Outdoors,                               !- Outside Boundary Condition
  ,                                       !- Outside Boundary Condition Object
  SunExposed,                             !- Sun Exposure
  WindExposed,                            !- Wind Exposure
  ,                                       !- View Factor to Ground
  ,                                       !- Number of Vertices
  -26.9347048849634, 58.0557891618865, 2.4384, !- X,Y,Z Vertex 1 {m}
  -26.9347048849634, 46.7895631136661, 8.0715130241102, !- X,Y,Z Vertex 2 {m}
  -14.3386812381136, 46.7895631136661, 8.0715130241102, !- X,Y,Z Vertex 3 {m}
  -14.3386812381136, 58.0557891618865, 2.4384; !- X,Y,Z Vertex 4 {m}

OS:AdditionalProperties,
  {2d3ddfb5-0931-4bbe-a329-60e599dfedaa}, !- Handle
  {8f29f7b1-cd4b-4fa4-9d4b-dbee7084fb8a}, !- Object Name
  Length,                                 !- Feature Name 1
  Double,                                 !- Feature Data Type 1
  41.325536899113608,                     !- Feature Value 1
  Width,                                  !- Feature Name 2
  Double,                                 !- Feature Data Type 2
  41.325536899113601,                     !- Feature Value 2
  Azimuth,                                !- Feature Name 3
  Integer,                                !- Feature Data Type 3
  0,                                      !- Feature Value 3
  Tilt,                                   !- Feature Name 4
  Double,                                 !- Feature Data Type 4
  0.5,                                    !- Feature Value 4
  SurfaceType,                            !- Feature Name 5
  String,                                 !- Feature Data Type 5
  Roof;                                   !- Feature Value 5

OS:ThermalZone,
  {c48255a5-8d1e-4125-a248-1ff3d7f0a982}, !- Handle
  attic - vented,                         !- Name
  1,                                      !- Multiplier
  ,                                       !- Ceiling Height {m}
  356.389957095237,                       !- Volume {m3}
  ,                                       !- Floor Area {m2}
  ,                                       !- Zone Inside Convection Algorithm
  ,                                       !- Zone Outside Convection Algorithm
  ,                                       !- Zone Conditioning Equipment List Name
  {a934d20e-20d8-4a18-a082-df49289a7789}, !- Zone Air Inlet Port List
  {4f48812b-b1c7-4bcb-9d51-f2e5f794a719}, !- Zone Air Exhaust Port List
  {8bb5f3cb-7548-4b37-82de-ec7fc0e51527}, !- Zone Air Node Name
  {5740317b-6816-4e15-9bd1-6cfdb9de0d2a}, !- Zone Return Air Port List
  ,                                       !- Primary Daylighting Control Name
  ,                                       !- Fraction of Zone Controlled by Primary Daylighting Control
  ,                                       !- Secondary Daylighting Control Name
  ,                                       !- Fraction of Zone Controlled by Secondary Daylighting Control
  ,                                       !- Illuminance Map Name
  ,                                       !- Group Rendering Name
  ,                                       !- Thermostat Name
  No;                                     !- Use Ideal Air Loads

OS:Node,
  {7128a1b3-7314-46cb-b0e6-983f7fe50fe3}, !- Handle
  Node 2,                                 !- Name
  {8bb5f3cb-7548-4b37-82de-ec7fc0e51527}, !- Inlet Port
  ;                                       !- Outlet Port

OS:Connection,
  {8bb5f3cb-7548-4b37-82de-ec7fc0e51527}, !- Handle
  {c48255a5-8d1e-4125-a248-1ff3d7f0a982}, !- Source Object
  11,                                     !- Outlet Port
  {7128a1b3-7314-46cb-b0e6-983f7fe50fe3}, !- Target Object
  2;                                      !- Inlet Port

OS:PortList,
  {a934d20e-20d8-4a18-a082-df49289a7789}, !- Handle
  {c48255a5-8d1e-4125-a248-1ff3d7f0a982}; !- HVAC Component

OS:PortList,
  {4f48812b-b1c7-4bcb-9d51-f2e5f794a719}, !- Handle
  {c48255a5-8d1e-4125-a248-1ff3d7f0a982}; !- HVAC Component

OS:PortList,
  {5740317b-6816-4e15-9bd1-6cfdb9de0d2a}, !- Handle
  {c48255a5-8d1e-4125-a248-1ff3d7f0a982}; !- HVAC Component

OS:Sizing:Zone,
  {56bbb626-9d8c-4134-9121-94060db9d1f1}, !- Handle
  {c48255a5-8d1e-4125-a248-1ff3d7f0a982}, !- Zone or ZoneList Name
  SupplyAirTemperature,                   !- Zone Cooling Design Supply Air Temperature Input Method
  14,                                     !- Zone Cooling Design Supply Air Temperature {C}
  11.11,                                  !- Zone Cooling Design Supply Air Temperature Difference {deltaC}
  SupplyAirTemperature,                   !- Zone Heating Design Supply Air Temperature Input Method
  40,                                     !- Zone Heating Design Supply Air Temperature {C}
  11.11,                                  !- Zone Heating Design Supply Air Temperature Difference {deltaC}
  0.0085,                                 !- Zone Cooling Design Supply Air Humidity Ratio {kg-H2O/kg-air}
  0.008,                                  !- Zone Heating Design Supply Air Humidity Ratio {kg-H2O/kg-air}
  ,                                       !- Zone Heating Sizing Factor
  ,                                       !- Zone Cooling Sizing Factor
  DesignDay,                              !- Cooling Design Air Flow Method
  ,                                       !- Cooling Design Air Flow Rate {m3/s}
  ,                                       !- Cooling Minimum Air Flow per Zone Floor Area {m3/s-m2}
  ,                                       !- Cooling Minimum Air Flow {m3/s}
  ,                                       !- Cooling Minimum Air Flow Fraction
  DesignDay,                              !- Heating Design Air Flow Method
  ,                                       !- Heating Design Air Flow Rate {m3/s}
  ,                                       !- Heating Maximum Air Flow per Zone Floor Area {m3/s-m2}
  ,                                       !- Heating Maximum Air Flow {m3/s}
  ,                                       !- Heating Maximum Air Flow Fraction
  No,                                     !- Account for Dedicated Outdoor Air System
  NeutralSupplyAir,                       !- Dedicated Outdoor Air System Control Strategy
  autosize,                               !- Dedicated Outdoor Air Low Setpoint Temperature for Design {C}
  autosize,                               !- Dedicated Outdoor Air High Setpoint Temperature for Design {C}
  Sensible Load Only No Latent Load,      !- Zone Load Sizing Method
  HumidityRatioDifference,                !- Zone Latent Cooling Design Supply Air Humidity Ratio Input Method
  ,                                       !- Zone Dehumidification Design Supply Air Humidity Ratio {kgWater/kgDryAir}
  0.005,                                  !- Zone Cooling Design Supply Air Humidity Ratio Difference {kgWater/kgDryAir}
  HumidityRatioDifference,                !- Zone Latent Heating Design Supply Air Humidity Ratio Input Method
  ,                                       !- Zone Humidification Design Supply Air Humidity Ratio {kgWater/kgDryAir}
  0.005,                                  !- Zone Humidification Design Supply Air Humidity Ratio Difference {kgWater/kgDryAir}
  ,                                       !- Zone Humidistat Dehumidification Set Point Schedule Name
  ,                                       !- Zone Humidistat Humidification Set Point Schedule Name
  ,                                       !- Design Zone Air Distribution Effectiveness in Cooling Mode
  ,                                       !- Design Zone Air Distribution Effectiveness in Heating Mode
  ,                                       !- Design Zone Secondary Recirculation Fraction {dimensionless}
  ,                                       !- Design Minimum Zone Ventilation Efficiency {dimensionless}
  Coincident;                             !- Sizing Option

OS:ZoneHVAC:EquipmentList,
  {c5c2ac0b-33ac-49ea-9618-d1cba4227c70}, !- Handle
  Zone HVAC Equipment List 2,             !- Name
  {c48255a5-8d1e-4125-a248-1ff3d7f0a982}; !- Thermal Zone

OS:AdditionalProperties,
  {0d7db43a-1387-4870-b097-3c1242f19f96}, !- Handle
  {c48255a5-8d1e-4125-a248-1ff3d7f0a982}, !- Object Name
  ObjectType,                             !- Feature Name 1
  String,                                 !- Feature Data Type 1
  attic - vented;                         !- Feature Value 1

OS:Space,
  {4b515880-e487-4494-a664-c03c88fad66a}, !- Handle
  attic - vented 1,                       !- Name
  ,                                       !- Space Type Name
  ,                                       !- Default Construction Set Name
  ,                                       !- Default Schedule Set Name
  ,                                       !- Direction of Relative North {deg}
  ,                                       !- X Origin {m}
  ,                                       !- Y Origin {m}
  ,                                       !- Z Origin {m}
  ,                                       !- Building Story Name
  {c48255a5-8d1e-4125-a248-1ff3d7f0a982}, !- Thermal Zone Name
  ,                                       !- Part of Total Floor Area
  ,                                       !- Design Specification Outdoor Air Object Name
  ,                                       !- Building Unit Name
  356.389957095237;                       !- Volume {m3}

OS:Material,
  {8ac9135c-f4f8-4048-bb84-5524f7412987}, !- Handle
  asphalt or fiberglass shingles,         !- Name
  Rough,                                  !- Roughness
  0.00635,                                !- Thickness {m}
  0.162714,                               !- Conductivity {W/m-K}
  1121.4,                                 !- Density {kg/m3}
  1465.45,                                !- Specific Heat {J/kg-K}
  0.9,                                    !- Thermal Absorptance
  0.85,                                   !- Solar Absorptance