
OS:Version,
  {187a6e45-794f-4209-914a-61f03055e70c}, !- Handle
  3.10.0;                                 !- Version Identifier

OS:SimulationControl,
  {09cea9d2-b7c4-44e6-9baf-f2cd6641a7a4}, !- Handle
  ,                                       !- Do Zone Sizing Calculation
  ,                                       !- Do System Sizing Calculation
  ,                                       !- Do Plant Sizing Calculation
  No;                                     !- Run Simulation for Sizing Periods

OS:Timestep,
  {9bccaf38-926d-42cf-a85a-19dfc00d6a95}, !- Handle
  1;                                      !- Number of Timesteps per Hour

OS:ShadowCalculation,
  {65dfe538-d445-4691-ade5-daf3937ec473}, !- Handle
  PolygonClipping,                        !- Shading Calculation Method
  ,                                       !- Shading Calculation Update Frequency Method
  20,                                     !- Shading Calculation Update Frequency
  200,                                    !- Maximum Figures in Shadow Overlap Calculations
  ,                                       !- Polygon Clipping Algorithm
  512,                                    !- Pixel Counting Resolution
  ,                                       !- Sky Diffuse Modeling Algorithm
  No,                                     !- Output External Shading Calculation Results
  No,                                     !- Disable Self-Shading Within Shading Zone Groups
  No;                                     !- Disable Self-Shading From Shading Zone Groups to Other Zones

OS:SurfaceConvectionAlgorithm:Outside,
  {b7277ab4-a6f1-49e3-ae60-e18faa8ff933}, !- Handle
  DOE-2;                                  !- Algorithm

OS:SurfaceConvectionAlgorithm:Inside,
  {623d50f9-8d10-43cf-96dc-06002f7df591}, !- Handle
  TARP;                                   !- Algorithm

OS:ZoneCapacitanceMultiplier:ResearchSpecial,
  {9a734e8a-7544-4586-bdcf-1ceac5766d4b}, !- Handle
  7,                                      !- Temperature Capacity Multiplier
  15,                                     !- Humidity Capacity Multiplier
  ;                                       !- Carbon Dioxide Capacity Multiplier

OS:ConvergenceLimits,
  {6ed4f3a0-cb4d-4606-abb3-ee11dd87a3f7}, !- Handle
  0;                                      !- Minimum System Timestep {minutes}

OS:RunPeriod,
  {dfe3e329-6236-4247-ad0f-d1c16015c582}, !- Handle
  Run Period 1,                           !- Name
  1,                                      !- Begin Month
  1,                                      !- Begin Day of Month
  12,                                     !- End Month
  31,                                     !- End Day of Month
  ,                                       !- Use Weather File Holidays and Special Days
  ,                                       !- Use Weather File Daylight Saving Period
  ,                                       !- Apply Weekend Holiday Rule
  ,                                       !- Use Weather File Rain Indicators
  ,                                       !- Use Weather File Snow Indicators
  ;                                       !- Number of Times Runperiod to be Repeated

OS:PerformancePrecisionTradeoffs,
  {8cee79ad-90fa-435a-9134-5d8022e92e72}, !- Handle
  ,                                       !- Use Coil Direct Solutions
  CarrollMRT;                             !- Zone Radiant Exchange Algorithm

OS:WeatherFile,
  {b379f09d-6104-4add-b10e-237371497528}, !- Handle
  Buffalo Niagara Intl Ap,                !- City
  NY,                                     !- State Province Region
  USA,                                    !- Country
  TMY3,                                   !- Data Source
  725280,                                 !- WMO Number
  42.93,                                  !- Latitude {deg}
  -78.73,                                 !- Longitude {deg}
  -5,                                     !- Time Zone {hr}
  215,                                    !- Elevation {m}
  /Users/nmoore/github/urbanopt-example-geojson-project/example_project/weather/USA_NY_Buffalo-Greater.Buffalo.Intl.AP.725280_TMY3.epw, !- Url
  6B50E0FF,                               !- Checksum
  ,                                       !- Start Date Actual Year
  Sunday;                                 !- Start Day of Week

OS:YearDescription,
  {f515dd78-f895-41e0-a4b7-7e7d87c6f19d}, !- Handle
  2007,                                   !- Calendar Year
  ,                                       !- Day of Week for Start Day
  ;                                       !- Is Leap Year

OS:Site,
  {cdae4297-8147-420f-bbaf-19b1813c98ca}, !- Handle
  Buffalo Niagara Intl Ap_NY,             !- Name
  42.93,                                  !- Latitude {deg}
  -78.73,                                 !- Longitude {deg}
  -5,                                     !- Time Zone {hr}
  215,                                    !- Elevation {m}
  Suburbs,                                !- Terrain
  Yes;                                    !- Keep Site Location Information

OS:RunPeriodControl:DaylightSavingTime,
  {3b983120-85eb-4041-abdb-7e767238ada4}, !- Handle
  Mar 12,                                 !- Start Date
  Nov 5;                                  !- End Date

OS:Site:GroundTemperature:Shallow,
  {33fc9ca4-55a4-423c-901e-dff0a4ae81a0}, !- Handle
  4.30207395723828,                       !- January Surface Ground Temperature {C}
  2.29327249652502,                       !- February Surface Ground Temperature {C}
  2.13240047156047,                       !- March Surface Ground Temperature {C}
  3.08567940719286,                       !- April Surface Ground Temperature {C}
  6.91256312497526,                       !- May Surface Ground Temperature {C}
  10.7216195949507,                       !- June Surface Ground Temperature {C}
  14.0238679822574,                       !- July Surface Ground Temperature {C}
  16.1157611184724,                       !- August Surface Ground Temperature {C}
  16.2934789303462,                       !- September Surface Ground Temperature {C}
  14.5920754632847,                       !- October Surface Ground Temperature {C}
  11.374036348653,                        !- November Surface Ground Temperature {C}
  7.68182621661674;                       !- December Surface Ground Temperature {C}

OS:ThermalZone,
  {c914ca34-e39b-41b1-8270-50351f8ce2f8}, !- Handle
  conditioned space,                      !- Name
  1,                                      !- Multiplier
  ,                                       !- Ceiling Height {m}
  692.06373070848,                        !- Volume {m3}
  ,                                       !- Floor Area {m2}
  ,                                       !- Zone Inside Convection Algorithm
  ,                                       !- Zone Outside Convection Algorithm
  ,                                       !- Zone Conditioning Equipment List Name
  {1e812a5a-d82c-42de-809f-0a71f4ab5bc1}, !- Zone Air Inlet Port List
  {0be3b1fb-25eb-405c-ac2d-0d4a5f003211}, !- Zone Air Exhaust Port List
  {121ddb2f-6a79-4861-b8d8-e4080073fedd}, !- Zone Air Node Name
  {c2072653-7b9c-4275-a08c-8a7a7a8ff95b}, !- Zone Return Air Port List
  ,                                       !- Primary Daylighting Control Name
  ,                                       !- Fraction of Zone Controlled by Primary Daylighting Control
  ,                                       !- Secondary Daylighting Control Name
  ,                                       !- Fraction of Zone Controlled by Secondary Daylighting Control
  ,                                       !- Illuminance Map Name
  ,                                       !- Group Rendering Name
  {a1fe5122-f376-4e9e-87eb-04b79eca28f2}, !- Thermostat Name
  No;                                     !- Use Ideal Air Loads

OS:Node,
  {cfb1b70b-0922-44e0-b443-395a2743f1d8}, !- Handle
  Node 1,                                 !- Name
  {121ddb2f-6a79-4861-b8d8-e4080073fedd}, !- Inlet Port
  ;                                       !- Outlet Port

OS:Connection,
  {121ddb2f-6a79-4861-b8d8-e4080073fedd}, !- Handle
  {c914ca34-e39b-41b1-8270-50351f8ce2f8}, !- Source Object
  11,                                     !- Outlet Port
  {cfb1b70b-0922-44e0-b443-395a2743f1d8}, !- Target Object
  2;                                      !- Inlet Port

OS:PortList,
  {1e812a5a-d82c-42de-809f-0a71f4ab5bc1}, !- Handle
  {c914ca34-e39b-41b1-8270-50351f8ce2f8}, !- HVAC Component
  {492151f8-fb40-4e97-9724-02284576f732}; !- Port 1

OS:PortList,
  {0be3b1fb-25eb-405c-ac2d-0d4a5f003211}, !- Handle
  {c914ca34-e39b-41b1-8270-50351f8ce2f8}; !- HVAC Component

OS:PortList,
  {c2072653-7b9c-4275-a08c-8a7a7a8ff95b}, !- Handle
  {c914ca34-e39b-41b1-8270-50351f8ce2f8}, !- HVAC Component
  {05098315-874e-4f13-9b32-c5ac70f52cf8}; !- Port 1

OS:Sizing:Zone,
  {be9b69b3-bac3-4b16-b662-eaa067ad6506}, !- Handle
  {c914ca34-e39b-41b1-8270-50351f8ce2f8}, !- Zone or ZoneList Name
  SupplyAirTemperature,                   !- Zone Cooling Design Supply Air Temperature Input Method
  14,                                     !- Zone Cooling Design Supply Air Temperature {C}
  11.11,                                  !- Zone Cooling Design Supply Air Temperature Difference {deltaC}
  SupplyAirTemperature,                   !- Zone Heating Design Supply Air Temperature Input Method
  40,                                     !- Zone Heating Design Supply Air Temperature {C}
  11.11,                                  !- Zone Heating Design Supply Air Temperature Difference {deltaC}
  0.0085,                                 !- Zone Cooling Design Supply Air Humidity Ratio {kg-H2O/kg-air}
  0.008,                                  !- Zone Heating Design Supply Air Humidity Ratio {kg-H2O/kg-air}
  ,                                       !- Zone Heating Sizing Factor
  ,                                       !- Zone Cooling Sizing Factor
  DesignDay,                              !- Cooling Design Air Flow Method
  ,                                       !- Cooling Design Air Flow Rate {m3/s}
  ,                                       !- Cooling Minimum Air Flow per Zone Floor Area {m3/s-m2}
  ,                                       !- Cooling Minimum Air Flow {m3/s}
  ,                                       !- Cooling Minimum Air Flow Fraction
  DesignDay,                              !- Heating Design Air Flow Method
  ,                                       !- Heating Design Air Flow Rate {m3/s}
  ,                                       !- Heating Maximum Air Flow per Zone Floor Area {m3/s-m2}
  ,                                       !- Heating Maximum Air Flow {m3/s}
  ,                                       !- Heating Maximum Air Flow Fraction
  No,                                     !- Account for Dedicated Outdoor Air System
  NeutralSupplyAir,                       !- Dedicated Outdoor Air System Control Strategy
  autosize,                               !- Dedicated Outdoor Air Low Setpoint Temperature for Design {C}
  autosize,                               !- Dedicated Outdoor Air High Setpoint Temperature for Design {C}
  Sensible Load Only No Latent Load,      !- Zone Load Sizing Method
  HumidityRatioDifference,                !- Zone Latent Cooling Design Supply Air Humidity Ratio Input Method
  ,                                       !- Zone Dehumidification Design Supply Air Humidity Ratio {kgWater/kgDryAir}
  0.005,                                  !- Zone Cooling Design Supply Air Humidity Ratio Difference {kgWater/kgDryAir}
  HumidityRatioDifference,                !- Zone Latent Heating Design Supply Air Humidity Ratio Input Method
  ,                                       !- Zone Humidification Design Supply Air Humidity Ratio {kgWater/kgDryAir}
  0.005,                                  !- Zone Humidification Design Supply Air Humidity Ratio Difference {kgWater/kgDryAir}
  ,                                       !- Zone Humidistat Dehumidification Set Point Schedule Name
  ,                                       !- Zone Humidistat Humidification Set Point Schedule Name
  ,                                       !- Design Zone Air Distribution Effectiveness in Cooling Mode
  ,                                       !- Design Zone Air Distribution Effectiveness in Heating Mode
  ,                                       !- Design Zone Secondary Recirculation Fraction {dimensionless}
  ,                                       !- Design Minimum Zone Ventilation Efficiency {dimensionless}
  Coincident;                             !- Sizing Option

OS:ZoneHVAC:EquipmentList,
  {0ead4efc-d1ae-4722-99bf-99d42bea60b3}, !- Handle
  Zone HVAC Equipment List 1,             !- Name
  {c914ca34-e39b-41b1-8270-50351f8ce2f8}, !- Thermal Zone
  ,                                       !- Load Distribution Scheme
  {8b73db42-b5c5-4dd8-9137-e0daf5dc8b8d}, !- Zone Equipment 1
  1,                                      !- Zone Equipment Cooling Sequence 1
  1,                                      !- Zone Equipment Heating or No-Load Sequence 1
  {8ac92f08-1773-4b86-9cc9-9dcc0034dc4e}, !- Zone Equipment Sequential Cooling Fraction Schedule Name 1
  {01c907ae-d55b-41bf-aaa2-02f3308ec9ab}; !- Zone Equipment Sequential Heating Fraction Schedule Name 1

OS:AdditionalProperties,
  {6efc635b-8139-4d37-8a70-6c29a2e6b828}, !- Handle
  {c914ca34-e39b-41b1-8270-50351f8ce2f8}, !- Object Name
  ObjectType,                             !- Feature Name 1
  String,                                 !- Feature Data Type 1
  conditioned space;                      !- Feature Value 1

OS:Space,
  {31f67b7d-fed7-4e74-9d15-e1f2ad30698c}, !- Handle
  conditioned space 1,                    !- Name
  ,                                       !- Space Type Name
  ,                                       !- Default Construction Set Name
  ,                                       !- Default Schedule Set Name
  ,                                       !- Direction of Relative North {deg}
  ,                                       !- X Origin {m}
  ,                                       !- Y Origin {m}
  ,                                       !- Z Origin {m}
  ,                                       !- Building Story Name
  {c914ca34-e39b-41b1-8270-50351f8ce2f8}, !- Thermal Zone Name
  ,                                       !- Part of Total Floor Area
  ,                                       !- Design Specification Outdoor Air Object Name
  ,                                       !- Building Unit Name
  692.06373070848;                        !- Volume {m3}

OS:Schedule:Ruleset,
  {2f7062ec-fa7e-4fb7-adef-394967463a84}, !- Handle
  heating setpoint,                       !- Name
  {def9bbcd-1237-47f4-8fa2-b6e841388841}, !- Schedule Type Limits Name
  {f4402cd1-b20c-407f-851c-cb8fba4dce49}; !- Default Day Schedule Name

OS:Schedule:Day,
  {f4402cd1-b20c-407f-851c-cb8fba4dce49}, !- Handle
  heating setpoint default day,           !- Name
  {def9bbcd-1237-47f4-8fa2-b6e841388841}, !- Schedule Type Limits Name
  ,                                       !- Interpolate to Timestep
  24,                                     !- Hour 1
  0,                                      !- Minute 1
  0;                                      !- Value Until Time 1

OS:Schedule:Rule,
  {18fee9ed-916a-461e-93a3-d4eb1bbfdce4}, !- Handle
  heating setpoint allday rule,           !- Name
  {2f7062ec-fa7e-4fb7-adef-394967463a84}, !- Schedule Ruleset Name
  0,                                      !- Rule Order
  {54750ab4-728e-4882-879e-46b248ec2c4c}, !- Day Schedule Name
  Yes,                                    !- Apply Sunday
  Yes,                                    !- Apply Monday
  Yes,                                    !- Apply Tuesday
  Yes,                                    !- Apply Wednesday
  Yes,                                    !- Apply Thursday
  Yes,                                    !- Apply Friday
  Yes,                                    !- Apply Saturday
  DateRange,                              !- Date Specification Type
  1,                                      !- Start Month
  1,                                      !- Start Day
  12,                                     !- End Month
  31;                                     !- End Day

OS:Schedule:Day,
  {54750ab4-728e-4882-879e-46b248ec2c4c}, !- Handle
  heating setpoint day,                   !- Name
  {def9bbcd-1237-47f4-8fa2-b6e841388841}, !- Schedule Type Limits Name
  ,                                       !- Interpolate to Timestep
  24,                                     !- Hour 1
  0,                                      !- Minute 1
  20;                                     !- Value Until Time 1

OS:Schedule:Ruleset,
  {cda46ffa-098d-4022-a19d-418d50ece792}, !- Handle
  cooling setpoint,                       !- Name
  {def9bbcd-1237-47f4-8fa2-b6e841388841}, !- Schedule Type Limits Name
  {56ec6fec-fd37-490f-a73a-de0024bdbb3c}; !- Default Day Schedule Name

OS:Schedule:Day,
  {56ec6fec-fd37-490f-a73a-de0024bdbb3c}, !- Handle
  cooling setpoint default day,           !- Name
  {def9bbcd-1237-47f4-8fa2-b6e841388841}, !- Schedule Type Limits Name
  ,                                       !- Interpolate to Timestep
  24,                                     !- Hour 1
  0,                                      !- Minute 1
  0;                                      !- Value Until Time 1

OS:Schedule:Rule,
  {15226ebe-d1d8-44f0-941b-b245baf51f76}, !- Handle
  cooling setpoint allday rule,           !- Name
  {cda46ffa-098d-4022-a19d-418d50ece792}, !- Schedule Ruleset Name
  0,                                      !- Rule Order
  {43569bc9-7f2a-4182-8cbe-2a54794d839b}, !- Day Schedule Name
  Yes,                                    !- Apply Sunday
  Yes,                                    !- Apply Monday
  Yes,                                    !- Apply Tuesday
  Yes,                                    !- Apply Wednesday
  Yes,                                    !- Apply Thursday
  Yes,                                    !- Apply Friday
  Yes,                                    !- Apply Saturday
  DateRange,                              !- Date Specification Type
  1,                                      !- Start Month
  1,                                      !- Start Day
  12,                                     !- End Month
  31;                                     !- End Day

OS:Schedule:Day,
  {43569bc9-7f2a-4182-8cbe-2a54794d839b}, !- Handle
  cooling setpoint day,                   !- Name
  {def9bbcd-1237-47f4-8fa2-b6e841388841}, !- Schedule Type Limits Name
  ,                                       !- Interpolate to Timestep
  24,                                     !- Hour 1
  0,                                      !- Minute 1
  25.5555555555556;                       !- Value Until Time 1

OS:ThermostatSetpoint:DualSetpoint,
  {a1fe5122-f376-4e9e-87eb-04b79eca28f2}, !- Handle
  conditioned space temperature setpoint, !- Name
  {2f7062ec-fa7e-4fb7-adef-394967463a84}, !- Heating Setpoint Temperature Schedule Name
  {cda46ffa-098d-4022-a19d-418d50ece792}, !- Cooling Setpoint Temperature Schedule Name
  0;                                      !- Temperature Difference Between Cutout And Setpoint {deltaC}

OS:ScheduleTypeLimits,
  {def9bbcd-1237-47f4-8fa2-b6e841388841}, !- Handle
  Temperature,                            !- Name
  ,                                       !- Lower Limit Value
  ,                                       !- Upper Limit Value
  Continuous,                             !- Numeric Type
  Temperature;                            !- Unit Type

OS:Surface,
  {1a80c503-7354-4a2d-a844-9806817cbab0}, !- Handle
  Roof1,                                  !- Name
  RoofCeiling,                            !- Surface Type
  {e0a40c98-01f6-4dba-950e-daff1338d04f}, !- Construction Name
  {10c51abc-2195-43c3-941b-fb5154058e87}, !- Space Name
  Outdoors,                               !- Outside Boundary Condition
  ,                                       !- Outside Boundary Condition Object
  SunExposed,                             !- Sun Exposure
  WindExposed,                            !- Wind Exposure
  ,                                       !- View Factor to Ground
  ,                                       !- Number of Vertices
  -26.9347048849634, 58.0557891618865, 2.4384, !- X,Y,Z Vertex 1 {m}
  -26.9347048849634, 46.7895631136661, 8.0715130241102, !- X,Y,Z Vertex 2 {m}
  -14.3386812381136, 46.7895631136661, 8.0715130241102, !- X,Y,Z Vertex 3 {m}
  -14.3386812381136, 58.0557891618865, 2.4384; !- X,Y,Z Vertex 4 {m}

OS:AdditionalProperties,
  {6c9ad6ac-4af4-4a28-9a9a-9ed86c87c540}, !- Handle
  {1a80c503-7354-4a2d-a844-9806817cbab0}, !- Object Name
  Length,                                 !- Feature Name 1
  Double,                                 !- Feature Data Type 1
  41.325536899113608,                     !- Feature Value 1
  Width,                                  !- Feature Name 2
  Double,                                 !- Feature Data Type 2
  41.325536899113601,                     !- Feature Value 2
  Azimuth,                                !- Feature Name 3
  Integer,                                !- Feature Data Type 3
  0,                                      !- Feature Value 3
  Tilt,                                   !- Feature Name 4
  Double,                                 !- Feature Data Type 4
  0.5,                                    !- Feature Value 4
  SurfaceType,                            !- Feature Name 5
  String,                                 !- Feature Data Type 5
  Roof;                                   !- Feature Value 5

OS:ThermalZone,
  {24cf665e-8199-4ecc-aca7-c9e801eec2c4}, !- Handle
  attic - vented,                         !- Name
  1,                                      !- Multiplier
  ,                                       !- Ceiling Height {m}
  356.390921899745,                       !- Volume {m3}
  ,                                       !- Floor Area {m2}
  ,                                       !- Zone Inside Convection Algorithm
  ,                                       !- Zone Outside Convection Algorithm
  ,                                       !- Zone Conditioning Equipment List Name
  {4aa2cf48-24e9-4b18-b0ba-6bd1518061e0}, !- Zone Air Inlet Port List
  {59e31de4-b6e1-4f38-bc31-183a3e5ed86f}, !- Zone Air Exhaust Port List
  {b01ad735-c675-47a8-9e3e-a970539b30a4}, !- Zone Air Node Name
  {70e0d110-1136-46a3-86cb-1efe90ef5c4c}, !- Zone Return Air Port List
  ,                                       !- Primary Daylighting Control Name
  ,                                       !- Fraction of Zone Controlled by Primary Daylighting Control
  ,                                       !- Secondary Daylighting Control Name
  ,                                       !- Fraction of Zone Controlled by Secondary Daylighting Control
  ,                                       !- Illuminance Map Name
  ,                                       !- Group Rendering Name
  ,                                       !- Thermostat Name
  No;                                     !- Use Ideal Air Loads

OS:Node,
  {930c1ed5-8d64-41ef-b11e-094b0b5b2353}, !- Handle
  Node 2,                                 !- Name
  {b01ad735-c675-47a8-9e3e-a970539b30a4}, !- Inlet Port
  ;                                       !- Outlet Port

OS:Connection,
  {b01ad735-c675-47a8-9e3e-a970539b30a4}, !- Handle
  {24cf665e-8199-4ecc-aca7-c9e801eec2c4}, !- Source Object
  11,                                     !- Outlet Port
  {930c1ed5-8d64-41ef-b11e-094b0b5b2353}, !- Target Object
  2;                                      !- Inlet Port

OS:PortList,
  {4aa2cf48-24e9-4b18-b0ba-6bd1518061e0}, !- Handle
  {24cf665e-8199-4ecc-aca7-c9e801eec2c4}; !- HVAC Component

OS:PortList,
  {59e31de4-b6e1-4f38-bc31-183a3e5ed86f}, !- Handle
  {24cf665e-8199-4ecc-aca7-c9e801eec2c4}; !- HVAC Component

OS:PortList,
  {70e0d110-1136-46a3-86cb-1efe90ef5c4c}, !- Handle
  {24cf665e-8199-4ecc-aca7-c9e801eec2c4}; !- HVAC Component

OS:Sizing:Zone,
  {17a3e092-4812-4095-88f2-85dadc4c4c1f}, !- Handle
  {24cf665e-8199-4ecc-aca7-c9e801eec2c4}, !- Zone or ZoneList Name
  SupplyAirTemperature,                   !- Zone Cooling Design Supply Air Temperature Input Method
  14,                                     !- Zone Cooling Design Supply Air Temperature {C}
  11.11,                                  !- Zone Cooling Design Supply Air Temperature Difference {deltaC}
  SupplyAirTemperature,                   !- Zone Heating Design Supply Air Temperature Input Method
  40,                                     !- Zone Heating Design Supply Air Temperature {C}
  11.11,                                  !- Zone Heating Design Supply Air Temperature Difference {deltaC}
  0.0085,                                 !- Zone Cooling Design Supply Air Humidity Ratio {kg-H2O/kg-air}
  0.008,                                  !- Zone Heating Design Supply Air Humidity Ratio {kg-H2O/kg-air}
  ,                                       !- Zone Heating Sizing Factor
  ,                                       !- Zone Cooling Sizing Factor
  DesignDay,                              !- Cooling Design Air Flow Method
  ,                                       !- Cooling Design Air Flow Rate {m3/s}
  ,                                       !- Cooling Minimum Air Flow per Zone Floor Area {m3/s-m2}
  ,                                       !- Cooling Minimum Air Flow {m3/s}
  ,                                       !- Cooling Minimum Air Flow Fraction
  DesignDay,                              !- Heating Design Air Flow Method
  ,                                       !- Heating Design Air Flow Rate {m3/s}
  ,                                       !- Heating Maximum Air Flow per Zone Floor Area {m3/s-m2}
  ,                                       !- Heating Maximum Air Flow {m3/s}
  ,                                       !- Heating Maximum Air Flow Fraction
  No,                                     !- Account for Dedicated Outdoor Air System
  NeutralSupplyAir,                       !- Dedicated Outdoor Air System Control Strategy
  autosize,                               !- Dedicated Outdoor Air Low Setpoint Temperature for Design {C}
  autosize,                               !- Dedicated Outdoor Air High Setpoint Temperature for Design {C}
  Sensible Load Only No Latent Load,      !- Zone Load Sizing Method
  HumidityRatioDifference,                !- Zone Latent Cooling Design Supply Air Humidity Ratio Input Method
  ,                                       !- Zone Dehumidification Design Supply Air Humidity Ratio {kgWater/kgDryAir}
  0.005,                                  !- Zone Cooling Design Supply Air Humidity Ratio Difference {kgWater/kgDryAir}
  HumidityRatioDifference,                !- Zone Latent Heating Design Supply Air Humidity Ratio Input Method
  ,                                       !- Zone Humidification Design Supply Air Humidity Ratio {kgWater/kgDryAir}
  0.005,                                  !- Zone Humidification Design Supply Air Humidity Ratio Difference {kgWater/kgDryAir}
  ,                                       !- Zone Humidistat Dehumidification Set Point Schedule Name
  ,                                       !- Zone Humidistat Humidification Set Point Schedule Name
  ,                                       !- Design Zone Air Distribution Effectiveness in Cooling Mode
  ,                                       !- Design Zone Air Distribution Effectiveness in Heating Mode
  ,                                       !- Design Zone Secondary Recirculation Fraction {dimensionless}
  ,                                       !- Design Minimum Zone Ventilation Efficiency {dimensionless}
  Coincident;                             !- Sizing Option

OS:ZoneHVAC:EquipmentList,
  {caff48c5-e88f-4540-977f-c22b6b65066b}, !- Handle
  Zone HVAC Equipment List 2,             !- Name
  {24cf665e-8199-4ecc-aca7-c9e801eec2c4}; !- Thermal Zone

OS:AdditionalProperties,
  {97036479-aadc-4536-9caa-7d6e5c03dea6}, !- Handle
  {24cf665e-8199-4ecc-aca7-c9e801eec2c4}, !- Object Name
  ObjectType,                             !- Feature Name 1
  String,                                 !- Feature Data Type 1
  attic - vented;                         !- Feature Value 1

OS:Space,
  {10c51abc-2195-43c3-941b-fb5154058e87}, !- Handle
  attic - vented 1,                       !- Name
  ,                                       !- Space Type Name
  ,                                       !- Default Construction Set Name
  ,                                       !- Default Schedule Set Name
  ,                                       !- Direction of Relative North {deg}
  ,                                       !- X Origin {m}
  ,                                       !- Y Origin {m}
  ,                                       !- Z Origin {m}
  ,                                       !- Building Story Name
  {24cf665e-8199-4ecc-aca7-c9e801eec2c4}, !- Thermal Zone Name
  ,                                       !- Part of Total Floor Area
  ,                                       !- Design Specification Outdoor Air Object Name
  ,                                       !- Building Unit Name
  356.390921899745;                       !- Volume {m3}

OS:Material,
  {b1de4c86-87d1-4b0c-adb2-7866d6ca83ae}, !- Handle
  asphalt or fiberglass shingles,         !- Name
  Rough,                                  !- Roughness
  0.00635,                                !- Thickness {m}
  0.162714,                               !- Conductivity {W/m-K}
  1121.4,                                 !- Density {kg/m3}
  1465.45,                                !- Specific Heat {J/kg-K}
  0.9,                                    !- Thermal Absorptance
  0.85,                                   !- Solar Absorptance