
OS:Version,
  {082ad822-f54e-4dcf-a47f-feba5e4ce7ca}, !- Handle
  3.10.0;                                 !- Version Identifier

OS:SimulationControl,
  {f561bbf6-d020-400d-a87a-55d065eaa197}, !- Handle
  ,                                       !- Do Zone Sizing Calculation
  ,                                       !- Do System Sizing Calculation
  ,                                       !- Do Plant Sizing Calculation
  No;                                     !- Run Simulation for Sizing Periods

OS:Timestep,
  {09502728-c13a-475c-8a82-6cec0e65a6f1}, !- Handle
  1;                                      !- Number of Timesteps per Hour

OS:ShadowCalculation,
  {82a61364-894f-4c8e-a307-82e266bf2264}, !- Handle
  PolygonClipping,                        !- Shading Calculation Method
  ,                                       !- Shading Calculation Update Frequency Method
  20,                                     !- Shading Calculation Update Frequency
  200,                                    !- Maximum Figures in Shadow Overlap Calculations
  ,                                       !- Polygon Clipping Algorithm
  512,                                    !- Pixel Counting Resolution
  ,                                       !- Sky Diffuse Modeling Algorithm
  No,                                     !- Output External Shading Calculation Results
  No,                                     !- Disable Self-Shading Within Shading Zone Groups
  No;                                     !- Disable Self-Shading From Shading Zone Groups to Other Zones

OS:SurfaceConvectionAlgorithm:Outside,
  {435009ca-8ffb-48b7-8ac9-702bda053a17}, !- Handle
  DOE-2;                                  !- Algorithm

OS:SurfaceConvectionAlgorithm:Inside,
  {4911ce1b-6944-490e-9f8b-d3851f9c4281}, !- Handle
  TARP;                                   !- Algorithm

OS:ZoneCapacitanceMultiplier:ResearchSpecial,
  {031d7730-cc45-41a0-805d-77ce79250cb4}, !- Handle
  7,                                      !- Temperature Capacity Multiplier
  15,                                     !- Humidity Capacity Multiplier
  ;                                       !- Carbon Dioxide Capacity Multiplier

OS:ConvergenceLimits,
  {ad997ede-1f61-4734-8750-4348e2667a77}, !- Handle
  0;                                      !- Minimum System Timestep {minutes}

OS:RunPeriod,
  {e70a9ed4-5d25-40e3-9154-b4e7d26498eb}, !- Handle
  Run Period 1,                           !- Name
  1,                                      !- Begin Month
  1,                                      !- Begin Day of Month
  12,                                     !- End Month
  31,                                     !- End Day of Month
  ,                                       !- Use Weather File Holidays and Special Days
  ,                                       !- Use Weather File Daylight Saving Period
  ,                                       !- Apply Weekend Holiday Rule
  ,                                       !- Use Weather File Rain Indicators
  ,                                       !- Use Weather File Snow Indicators
  ;                                       !- Number of Times Runperiod to be Repeated

OS:PerformancePrecisionTradeoffs,
  {f746aa60-d20f-4cef-886c-0bbce196cf60}, !- Handle
  ,                                       !- Use Coil Direct Solutions
  CarrollMRT;                             !- Zone Radiant Exchange Algorithm

OS:WeatherFile,
  {95570c42-f16c-40f0-b87c-93c4c4f606db}, !- Handle
  Buffalo Niagara Intl Ap,                !- City
  NY,                                     !- State Province Region
  USA,                                    !- Country
  TMY3,                                   !- Data Source
  725280,                                 !- WMO Number
  42.93,                                  !- Latitude {deg}
  -78.73,                                 !- Longitude {deg}
  -5,                                     !- Time Zone {hr}
  215,                                    !- Elevation {m}
  /Users/nmoore/github/urbanopt-example-geojson-project/example_project/weather/USA_NY_Buffalo-Greater.Buffalo.Intl.AP.725280_TMY3.epw, !- Url
  6B50E0FF,                               !- Checksum
  ,                                       !- Start Date Actual Year
  Sunday;                                 !- Start Day of Week

OS:YearDescription,
  {be98f6c4-8c88-4b8f-aa94-f5d5aecfff8c}, !- Handle
  2007,                                   !- Calendar Year
  ,                                       !- Day of Week for Start Day
  ;                                       !- Is Leap Year

OS:Site,
  {19a75a8e-7028-4200-aa41-db735cec96b0}, !- Handle
  Buffalo Niagara Intl Ap_NY,             !- Name
  42.93,                                  !- Latitude {deg}
  -78.73,                                 !- Longitude {deg}
  -5,                                     !- Time Zone {hr}
  215,                                    !- Elevation {m}
  Suburbs,                                !- Terrain
  Yes;                                    !- Keep Site Location Information

OS:RunPeriodControl:DaylightSavingTime,
  {7fa40275-f75f-4474-b1fa-995b369218c2}, !- Handle
  Mar 12,                                 !- Start Date
  Nov 5;                                  !- End Date

OS:Site:GroundTemperature:Shallow,
  {22150b66-4408-49b6-a884-f00b21b12c3d}, !- Handle
  4.30207395723828,                       !- January Surface Ground Temperature {C}
  2.29327249652502,                       !- February Surface Ground Temperature {C}
  2.13240047156047,                       !- March Surface Ground Temperature {C}
  3.08567940719286,                       !- April Surface Ground Temperature {C}
  6.91256312497526,                       !- May Surface Ground Temperature {C}
  10.7216195949507,                       !- June Surface Ground Temperature {C}
  14.0238679822574,                       !- July Surface Ground Temperature {C}
  16.1157611184724,                       !- August Surface Ground Temperature {C}
  16.2934789303462,                       !- September Surface Ground Temperature {C}
  14.5920754632847,                       !- October Surface Ground Temperature {C}
  11.374036348653,                        !- November Surface Ground Temperature {C}
  7.68182621661674;                       !- December Surface Ground Temperature {C}

OS:ThermalZone,
  {043a7b7f-e3bc-4594-b2bb-9a7331376912}, !- Handle
  conditioned space,                      !- Name
  1,                                      !- Multiplier
  ,                                       !- Ceiling Height {m}
  692.06373070848,                        !- Volume {m3}
  ,                                       !- Floor Area {m2}
  ,                                       !- Zone Inside Convection Algorithm
  ,                                       !- Zone Outside Convection Algorithm
  ,                                       !- Zone Conditioning Equipment List Name
  {530ba84d-1d4b-4354-9fa8-761f990ad3fe}, !- Zone Air Inlet Port List
  {1feaefa9-c6e9-46cd-8aed-795c6b9e032b}, !- Zone Air Exhaust Port List
  {728db0f4-2b1e-456e-9b1c-fdffd91193bf}, !- Zone Air Node Name
  {376a969d-fc5e-4983-ae19-8e2ab7b7d71c}, !- Zone Return Air Port List
  ,                                       !- Primary Daylighting Control Name
  ,                                       !- Fraction of Zone Controlled by Primary Daylighting Control
  ,                                       !- Secondary Daylighting Control Name
  ,                                       !- Fraction of Zone Controlled by Secondary Daylighting Control
  ,                                       !- Illuminance Map Name
  ,                                       !- Group Rendering Name
  {a6f47b62-2c6b-450b-9a7f-20ad2dd785b2}, !- Thermostat Name
  No;                                     !- Use Ideal Air Loads

OS:Node,
  {13695c33-0965-460b-aad2-b3bcf8598057}, !- Handle
  Node 1,                                 !- Name
  {728db0f4-2b1e-456e-9b1c-fdffd91193bf}, !- Inlet Port
  ;                                       !- Outlet Port

OS:Connection,
  {728db0f4-2b1e-456e-9b1c-fdffd91193bf}, !- Handle
  {043a7b7f-e3bc-4594-b2bb-9a7331376912}, !- Source Object
  11,                                     !- Outlet Port
  {13695c33-0965-460b-aad2-b3bcf8598057}, !- Target Object
  2;                                      !- Inlet Port

OS:PortList,
  {530ba84d-1d4b-4354-9fa8-761f990ad3fe}, !- Handle
  {043a7b7f-e3bc-4594-b2bb-9a7331376912}, !- HVAC Component
  {49db623e-bce5-42e7-8a02-e3fdb5175182}; !- Port 1

OS:PortList,
  {1feaefa9-c6e9-46cd-8aed-795c6b9e032b}, !- Handle
  {043a7b7f-e3bc-4594-b2bb-9a7331376912}; !- HVAC Component

OS:PortList,
  {376a969d-fc5e-4983-ae19-8e2ab7b7d71c}, !- Handle
  {043a7b7f-e3bc-4594-b2bb-9a7331376912}, !- HVAC Component
  {43c2864f-74d6-4004-a3de-b88dd41a7623}; !- Port 1

OS:Sizing:Zone,
  {0ffcf396-36e6-4a9f-b98c-dc27d2738b24}, !- Handle
  {043a7b7f-e3bc-4594-b2bb-9a7331376912}, !- Zone or ZoneList Name
  SupplyAirTemperature,                   !- Zone Cooling Design Supply Air Temperature Input Method
  14,                                     !- Zone Cooling Design Supply Air Temperature {C}
  11.11,                                  !- Zone Cooling Design Supply Air Temperature Difference {deltaC}
  SupplyAirTemperature,                   !- Zone Heating Design Supply Air Temperature Input Method
  40,                                     !- Zone Heating Design Supply Air Temperature {C}
  11.11,                                  !- Zone Heating Design Supply Air Temperature Difference {deltaC}
  0.0085,                                 !- Zone Cooling Design Supply Air Humidity Ratio {kg-H2O/kg-air}
  0.008,                                  !- Zone Heating Design Supply Air Humidity Ratio {kg-H2O/kg-air}
  ,                                       !- Zone Heating Sizing Factor
  ,                                       !- Zone Cooling Sizing Factor
  DesignDay,                              !- Cooling Design Air Flow Method
  ,                                       !- Cooling Design Air Flow Rate {m3/s}
  ,                                       !- Cooling Minimum Air Flow per Zone Floor Area {m3/s-m2}
  ,                                       !- Cooling Minimum Air Flow {m3/s}
  ,                                       !- Cooling Minimum Air Flow Fraction
  DesignDay,                              !- Heating Design Air Flow Method
  ,                                       !- Heating Design Air Flow Rate {m3/s}
  ,                                       !- Heating Maximum Air Flow per Zone Floor Area {m3/s-m2}
  ,                                       !- Heating Maximum Air Flow {m3/s}
  ,                                       !- Heating Maximum Air Flow Fraction
  No,                                     !- Account for Dedicated Outdoor Air System
  NeutralSupplyAir,                       !- Dedicated Outdoor Air System Control Strategy
  autosize,                               !- Dedicated Outdoor Air Low Setpoint Temperature for Design {C}
  autosize,                               !- Dedicated Outdoor Air High Setpoint Temperature for Design {C}
  Sensible Load Only No Latent Load,      !- Zone Load Sizing Method
  HumidityRatioDifference,                !- Zone Latent Cooling Design Supply Air Humidity Ratio Input Method
  ,                                       !- Zone Dehumidification Design Supply Air Humidity Ratio {kgWater/kgDryAir}
  0.005,                                  !- Zone Cooling Design Supply Air Humidity Ratio Difference {kgWater/kgDryAir}
  HumidityRatioDifference,                !- Zone Latent Heating Design Supply Air Humidity Ratio Input Method
  ,                                       !- Zone Humidification Design Supply Air Humidity Ratio {kgWater/kgDryAir}
  0.005,                                  !- Zone Humidification Design Supply Air Humidity Ratio Difference {kgWater/kgDryAir}
  ,                                       !- Zone Humidistat Dehumidification Set Point Schedule Name
  ,                                       !- Zone Humidistat Humidification Set Point Schedule Name
  ,                                       !- Design Zone Air Distribution Effectiveness in Cooling Mode
  ,                                       !- Design Zone Air Distribution Effectiveness in Heating Mode
  ,                                       !- Design Zone Secondary Recirculation Fraction {dimensionless}
  ,                                       !- Design Minimum Zone Ventilation Efficiency {dimensionless}
  Coincident;                             !- Sizing Option

OS:ZoneHVAC:EquipmentList,
  {340c0aad-452f-4a2c-b931-21e34fc165b1}, !- Handle
  Zone HVAC Equipment List 1,             !- Name
  {043a7b7f-e3bc-4594-b2bb-9a7331376912}, !- Thermal Zone
  ,                                       !- Load Distribution Scheme
  {06a2c06a-ef66-49bd-88f5-9b4c703f6575}, !- Zone Equipment 1
  1,                                      !- Zone Equipment Cooling Sequence 1
  1,                                      !- Zone Equipment Heating or No-Load Sequence 1
  {0dc8b5e5-528f-4537-98c1-d15d9f8fdb1a}, !- Zone Equipment Sequential Cooling Fraction Schedule Name 1
  {0e63386a-8ad7-4234-87d5-c37851204cd7}; !- Zone Equipment Sequential Heating Fraction Schedule Name 1

OS:AdditionalProperties,
  {ba299408-f124-4626-8926-f5e64411ec73}, !- Handle
  {043a7b7f-e3bc-4594-b2bb-9a7331376912}, !- Object Name
  ObjectType,                             !- Feature Name 1
  String,                                 !- Feature Data Type 1
  conditioned space;                      !- Feature Value 1

OS:Space,
  {fcb0cf90-f785-42bb-8a5f-b1beda7f5863}, !- Handle
  conditioned space 1,                    !- Name
  ,                                       !- Space Type Name
  ,                                       !- Default Construction Set Name
  ,                                       !- Default Schedule Set Name
  ,                                       !- Direction of Relative North {deg}
  ,                                       !- X Origin {m}
  ,                                       !- Y Origin {m}
  ,                                       !- Z Origin {m}
  ,                                       !- Building Story Name
  {043a7b7f-e3bc-4594-b2bb-9a7331376912}, !- Thermal Zone Name
  ,                                       !- Part of Total Floor Area
  ,                                       !- Design Specification Outdoor Air Object Name
  ,                                       !- Building Unit Name
  692.06373070848;                        !- Volume {m3}

OS:Schedule:Ruleset,
  {abf72dec-ba6b-4df7-b682-73703055cb39}, !- Handle
  heating setpoint,                       !- Name
  {7cd5fa3d-abdc-4090-af29-649b299ef5df}, !- Schedule Type Limits Name
  {23e57541-7518-4d11-aba5-b1fbf4756a55}; !- Default Day Schedule Name

OS:Schedule:Day,
  {23e57541-7518-4d11-aba5-b1fbf4756a55}, !- Handle
  heating setpoint default day,           !- Name
  {7cd5fa3d-abdc-4090-af29-649b299ef5df}, !- Schedule Type Limits Name
  ,                                       !- Interpolate to Timestep
  24,                                     !- Hour 1
  0,                                      !- Minute 1
  0;                                      !- Value Until Time 1

OS:Schedule:Rule,
  {181cd2f6-6954-44b2-a6b9-59414be07608}, !- Handle
  heating setpoint allday rule,           !- Name
  {abf72dec-ba6b-4df7-b682-73703055cb39}, !- Schedule Ruleset Name
  0,                                      !- Rule Order
  {f5cc40f0-00db-470a-88b4-3ed358c7f5aa}, !- Day Schedule Name
  Yes,                                    !- Apply Sunday
  Yes,                                    !- Apply Monday
  Yes,                                    !- Apply Tuesday
  Yes,                                    !- Apply Wednesday
  Yes,                                    !- Apply Thursday
  Yes,                                    !- Apply Friday
  Yes,                                    !- Apply Saturday
  DateRange,                              !- Date Specification Type
  1,                                      !- Start Month
  1,                                      !- Start Day
  12,                                     !- End Month
  31;                                     !- End Day

OS:Schedule:Day,
  {f5cc40f0-00db-470a-88b4-3ed358c7f5aa}, !- Handle
  heating setpoint day,                   !- Name
  {7cd5fa3d-abdc-4090-af29-649b299ef5df}, !- Schedule Type Limits Name
  ,                                       !- Interpolate to Timestep
  24,                                     !- Hour 1
  0,                                      !- Minute 1
  20;                                     !- Value Until Time 1

OS:Schedule:Ruleset,
  {7da67f0a-1ed9-43ed-b329-26cfe8aedad0}, !- Handle
  cooling setpoint,                       !- Name
  {7cd5fa3d-abdc-4090-af29-649b299ef5df}, !- Schedule Type Limits Name
  {113a43a9-36c7-4f37-bf32-dff3126e4d57}; !- Default Day Schedule Name

OS:Schedule:Day,
  {113a43a9-36c7-4f37-bf32-dff3126e4d57}, !- Handle
  cooling setpoint default day,           !- Name
  {7cd5fa3d-abdc-4090-af29-649b299ef5df}, !- Schedule Type Limits Name
  ,                                       !- Interpolate to Timestep
  24,                                     !- Hour 1
  0,                                      !- Minute 1
  0;                                      !- Value Until Time 1

OS:Schedule:Rule,
  {98478f83-4c7f-4a7a-a28f-ff593b50d89e}, !- Handle
  cooling setpoint allday rule,           !- Name
  {7da67f0a-1ed9-43ed-b329-26cfe8aedad0}, !- Schedule Ruleset Name
  0,                                      !- Rule Order
  {1eb0443c-2c0e-4ac6-92f8-97fb30718437}, !- Day Schedule Name
  Yes,                                    !- Apply Sunday
  Yes,                                    !- Apply Monday
  Yes,                                    !- Apply Tuesday
  Yes,                                    !- Apply Wednesday
  Yes,                                    !- Apply Thursday
  Yes,                                    !- Apply Friday
  Yes,                                    !- Apply Saturday
  DateRange,                              !- Date Specification Type
  1,                                      !- Start Month
  1,                                      !- Start Day
  12,                                     !- End Month
  31;                                     !- End Day

OS:Schedule:Day,
  {1eb0443c-2c0e-4ac6-92f8-97fb30718437}, !- Handle
  cooling setpoint day,                   !- Name
  {7cd5fa3d-abdc-4090-af29-649b299ef5df}, !- Schedule Type Limits Name
  ,                                       !- Interpolate to Timestep
  24,                                     !- Hour 1
  0,                                      !- Minute 1
  25.5555555555556;                       !- Value Until Time 1

OS:ThermostatSetpoint:DualSetpoint,
  {a6f47b62-2c6b-450b-9a7f-20ad2dd785b2}, !- Handle
  conditioned space temperature setpoint, !- Name
  {abf72dec-ba6b-4df7-b682-73703055cb39}, !- Heating Setpoint Temperature Schedule Name
  {7da67f0a-1ed9-43ed-b329-26cfe8aedad0}, !- Cooling Setpoint Temperature Schedule Name
  0;                                      !- Temperature Difference Between Cutout And Setpoint {deltaC}

OS:ScheduleTypeLimits,
  {7cd5fa3d-abdc-4090-af29-649b299ef5df}, !- Handle
  Temperature,                            !- Name
  ,                                       !- Lower Limit Value
  ,                                       !- Upper Limit Value
  Continuous,                             !- Numeric Type
  Temperature;                            !- Unit Type

OS:Surface,
  {e283d1bc-c9bc-4d4d-92a8-51582916bbac}, !- Handle
  Roof1,                                  !- Name
  RoofCeiling,                            !- Surface Type
  {6695e312-69cf-4a02-8dd7-2dc185f25f51}, !- Construction Name
  {513f66eb-fb49-4a4d-8060-759b7f20f737}, !- Space Name
  Outdoors,                               !- Outside Boundary Condition
  ,                                       !- Outside Boundary Condition Object
  SunExposed,                             !- Sun Exposure
  WindExposed,                            !- Wind Exposure
  ,                                       !- View Factor to Ground
  ,                                       !- Number of Vertices
  -26.9347048849634, 58.0557891618865, 2.4384, !- X,Y,Z Vertex 1 {m}
  -26.9347048849634, 46.7895631136661, 8.0715130241102, !- X,Y,Z Vertex 2 {m}
  -14.3386812381136, 46.7895631136661, 8.0715130241102, !- X,Y,Z Vertex 3 {m}
  -14.3386812381136, 58.0557891618865, 2.4384; !- X,Y,Z Vertex 4 {m}

OS:AdditionalProperties,
  {b2a1dafc-afcb-407a-9f21-2024717c022f}, !- Handle
  {e283d1bc-c9bc-4d4d-92a8-51582916bbac}, !- Object Name
  Length,                                 !- Feature Name 1
  Double,                                 !- Feature Data Type 1
  41.325536899113608,                     !- Feature Value 1
  Width,                                  !- Feature Name 2
  Double,                                 !- Feature Data Type 2
  41.325536899113601,                     !- Feature Value 2
  Azimuth,                                !- Feature Name 3
  Integer,                                !- Feature Data Type 3
  0,                                      !- Feature Value 3
  Tilt,                                   !- Feature Name 4
  Double,                                 !- Feature Data Type 4
  0.5,                                    !- Feature Value 4
  SurfaceType,                            !- Feature Name 5
  String,                                 !- Feature Data Type 5
  Roof;                                   !- Feature Value 5

OS:ThermalZone,
  {17211960-b9d7-4631-b223-c8d1e05e4a57}, !- Handle
  attic - vented,                         !- Name
  1,                                      !- Multiplier
  ,                                       !- Ceiling Height {m}
  356.390921899745,                       !- Volume {m3}
  ,                                       !- Floor Area {m2}
  ,                                       !- Zone Inside Convection Algorithm
  ,                                       !- Zone Outside Convection Algorithm
  ,                                       !- Zone Conditioning Equipment List Name
  {dab04362-6c80-4c92-b70f-75030cc5c1e9}, !- Zone Air Inlet Port List
  {b5b9ed46-2cd2-40a4-b48f-223a2e9445a6}, !- Zone Air Exhaust Port List
  {8164ff7c-a4b7-484b-b19f-43d7203079f6}, !- Zone Air Node Name
  {4e8ce673-2c2f-43f1-a337-356ae4712535}, !- Zone Return Air Port List
  ,                                       !- Primary Daylighting Control Name
  ,                                       !- Fraction of Zone Controlled by Primary Daylighting Control
  ,                                       !- Secondary Daylighting Control Name
  ,                                       !- Fraction of Zone Controlled by Secondary Daylighting Control
  ,                                       !- Illuminance Map Name
  ,                                       !- Group Rendering Name
  ,                                       !- Thermostat Name
  No;                                     !- Use Ideal Air Loads

OS:Node,
  {9c83c014-6f91-432c-8717-36899d9cb428}, !- Handle
  Node 2,                                 !- Name
  {8164ff7c-a4b7-484b-b19f-43d7203079f6}, !- Inlet Port
  ;                                       !- Outlet Port

OS:Connection,
  {8164ff7c-a4b7-484b-b19f-43d7203079f6}, !- Handle
  {17211960-b9d7-4631-b223-c8d1e05e4a57}, !- Source Object
  11,                                     !- Outlet Port
  {9c83c014-6f91-432c-8717-36899d9cb428}, !- Target Object
  2;                                      !- Inlet Port

OS:PortList,
  {dab04362-6c80-4c92-b70f-75030cc5c1e9}, !- Handle
  {17211960-b9d7-4631-b223-c8d1e05e4a57}; !- HVAC Component

OS:PortList,
  {b5b9ed46-2cd2-40a4-b48f-223a2e9445a6}, !- Handle
  {17211960-b9d7-4631-b223-c8d1e05e4a57}; !- HVAC Component

OS:PortList,
  {4e8ce673-2c2f-43f1-a337-356ae4712535}, !- Handle
  {17211960-b9d7-4631-b223-c8d1e05e4a57}; !- HVAC Component

OS:Sizing:Zone,
  {fc08ab08-427e-4fc2-af6c-f383631dcfad}, !- Handle
  {17211960-b9d7-4631-b223-c8d1e05e4a57}, !- Zone or ZoneList Name
  SupplyAirTemperature,                   !- Zone Cooling Design Supply Air Temperature Input Method
  14,                                     !- Zone Cooling Design Supply Air Temperature {C}
  11.11,                                  !- Zone Cooling Design Supply Air Temperature Difference {deltaC}
  SupplyAirTemperature,                   !- Zone Heating Design Supply Air Temperature Input Method
  40,                                     !- Zone Heating Design Supply Air Temperature {C}
  11.11,                                  !- Zone Heating Design Supply Air Temperature Difference {deltaC}
  0.0085,                                 !- Zone Cooling Design Supply Air Humidity Ratio {kg-H2O/kg-air}
  0.008,                                  !- Zone Heating Design Supply Air Humidity Ratio {kg-H2O/kg-air}
  ,                                       !- Zone Heating Sizing Factor
  ,                                       !- Zone Cooling Sizing Factor
  DesignDay,                              !- Cooling Design Air Flow Method
  ,                                       !- Cooling Design Air Flow Rate {m3/s}
  ,                                       !- Cooling Minimum Air Flow per Zone Floor Area {m3/s-m2}
  ,                                       !- Cooling Minimum Air Flow {m3/s}
  ,                                       !- Cooling Minimum Air Flow Fraction
  DesignDay,                              !- Heating Design Air Flow Method
  ,                                       !- Heating Design Air Flow Rate {m3/s}
  ,                                       !- Heating Maximum Air Flow per Zone Floor Area {m3/s-m2}
  ,                                       !- Heating Maximum Air Flow {m3/s}
  ,                                       !- Heating Maximum Air Flow Fraction
  No,                                     !- Account for Dedicated Outdoor Air System
  NeutralSupplyAir,                       !- Dedicated Outdoor Air System Control Strategy
  autosize,                               !- Dedicated Outdoor Air Low Setpoint Temperature for Design {C}
  autosize,                               !- Dedicated Outdoor Air High Setpoint Temperature for Design {C}
  Sensible Load Only No Latent Load,      !- Zone Load Sizing Method
  HumidityRatioDifference,                !- Zone Latent Cooling Design Supply Air Humidity Ratio Input Method
  ,                                       !- Zone Dehumidification Design Supply Air Humidity Ratio {kgWater/kgDryAir}
  0.005,                                  !- Zone Cooling Design Supply Air Humidity Ratio Difference {kgWater/kgDryAir}
  HumidityRatioDifference,                !- Zone Latent Heating Design Supply Air Humidity Ratio Input Method
  ,                                       !- Zone Humidification Design Supply Air Humidity Ratio {kgWater/kgDryAir}
  0.005,                                  !- Zone Humidification Design Supply Air Humidity Ratio Difference {kgWater/kgDryAir}
  ,                                       !- Zone Humidistat Dehumidification Set Point Schedule Name
  ,                                       !- Zone Humidistat Humidification Set Point Schedule Name
  ,                                       !- Design Zone Air Distribution Effectiveness in Cooling Mode
  ,                                       !- Design Zone Air Distribution Effectiveness in Heating Mode
  ,                                       !- Design Zone Secondary Recirculation Fraction {dimensionless}
  ,                                       !- Design Minimum Zone Ventilation Efficiency {dimensionless}
  Coincident;                             !- Sizing Option

OS:ZoneHVAC:EquipmentList,
  {9aab5c61-0b96-43f2-91d9-3a9b2f4d9292}, !- Handle
  Zone HVAC Equipment List 2,             !- Name
  {17211960-b9d7-4631-b223-c8d1e05e4a57}; !- Thermal Zone

OS:AdditionalProperties,
  {2c70981f-a8cf-40b7-a0f4-4a8155b8ac63}, !- Handle
  {17211960-b9d7-4631-b223-c8d1e05e4a57}, !- Object Name
  ObjectType,                             !- Feature Name 1
  String,                                 !- Feature Data Type 1
  attic - vented;                         !- Feature Value 1

OS:Space,
  {513f66eb-fb49-4a4d-8060-759b7f20f737}, !- Handle
  attic - vented 1,                       !- Name
  ,                                       !- Space Type Name
  ,                                       !- Default Construction Set Name
  ,                                       !- Default Schedule Set Name
  ,                                       !- Direction of Relative North {deg}
  ,                                       !- X Origin {m}
  ,                                       !- Y Origin {m}
  ,                                       !- Z Origin {m}
  ,                                       !- Building Story Name
  {17211960-b9d7-4631-b223-c8d1e05e4a57}, !- Thermal Zone Name
  ,                                       !- Part of Total Floor Area
  ,                                       !- Design Specification Outdoor Air Object Name
  ,                                       !- Building Unit Name
  356.390921899745;                       !- Volume {m3}

OS:Material,
  {0b358f66-44b5-4912-b63a-5b4139cf7549}, !- Handle
  asphalt or fiberglass shingles,         !- Name
  Rough,                                  !- Roughness
  0.00635,                                !- Thickness {m}
  0.162714,                               !- Conductivity {W/m-K}
  1121.4,                                 !- Density {kg/m3}
  1465.45,                                !- Specific Heat {J/kg-K}
  0.9,                                    !- Thermal Absorptance
  0.85,                                   !- Solar Absorptance