
OS:Version,
  {68df33da-e898-4bbe-a56a-61952875bb6a}, !- Handle
  3.9.0;                                  !- Version Identifier

OS:SimulationControl,
  {195ffc97-46da-4a80-b371-546e577484f0}, !- Handle
  ,                                       !- Do Zone Sizing Calculation
  ,                                       !- Do System Sizing Calculation
  ,                                       !- Do Plant Sizing Calculation
  No;                                     !- Run Simulation for Sizing Periods

OS:Timestep,
  {e11c4a23-5ef9-4468-a97f-3f2448cb4cfa}, !- Handle
  1;                                      !- Number of Timesteps per Hour

OS:ShadowCalculation,
  {e94534b3-c806-440f-a4a7-4fc3670f2e43}, !- Handle
  PolygonClipping,                        !- Shading Calculation Method
  ,                                       !- Shading Calculation Update Frequency Method
  20,                                     !- Shading Calculation Update Frequency
  200,                                    !- Maximum Figures in Shadow Overlap Calculations
  ,                                       !- Polygon Clipping Algorithm
  512,                                    !- Pixel Counting Resolution
  ,                                       !- Sky Diffuse Modeling Algorithm
  No,                                     !- Output External Shading Calculation Results
  No,                                     !- Disable Self-Shading Within Shading Zone Groups
  No;                                     !- Disable Self-Shading From Shading Zone Groups to Other Zones

OS:SurfaceConvectionAlgorithm:Outside,
  {72415f72-dc31-4127-aab9-1360614b7303}, !- Handle
  DOE-2;                                  !- Algorithm

OS:SurfaceConvectionAlgorithm:Inside,
  {658938fd-aad9-4eb7-a962-87fdf5271538}, !- Handle
  TARP;                                   !- Algorithm

OS:ZoneCapacitanceMultiplier:ResearchSpecial,
  {9e9b2e71-fbae-46a0-b924-0428e287cda3}, !- Handle
  7,                                      !- Temperature Capacity Multiplier
  15,                                     !- Humidity Capacity Multiplier
  ;                                       !- Carbon Dioxide Capacity Multiplier

OS:ConvergenceLimits,
  {1b53ea18-d539-4758-9f68-01e75f9d90a9}, !- Handle
  0;                                      !- Minimum System Timestep {minutes}

OS:RunPeriod,
  {a269ea88-7af5-4c37-ac29-b2f217e26062}, !- Handle
  Run Period 1,                           !- Name
  1,                                      !- Begin Month
  1,                                      !- Begin Day of Month
  12,                                     !- End Month
  31,                                     !- End Day of Month
  ,                                       !- Use Weather File Holidays and Special Days
  ,                                       !- Use Weather File Daylight Saving Period
  ,                                       !- Apply Weekend Holiday Rule
  ,                                       !- Use Weather File Rain Indicators
  ,                                       !- Use Weather File Snow Indicators
  ;                                       !- Number of Times Runperiod to be Repeated

OS:PerformancePrecisionTradeoffs,
  {e54cd3f5-dba3-4731-8eb9-004bd3a080ac}, !- Handle
  ,                                       !- Use Coil Direct Solutions
  CarrollMRT;                             !- Zone Radiant Exchange Algorithm

OS:WeatherFile,
  {1eec4396-1bde-4ddf-bff1-5e491d8b5ab2}, !- Handle
  Buffalo Niagara Intl Ap,                !- City
  NY,                                     !- State Province Region
  USA,                                    !- Country
  TMY3,                                   !- Data Source
  725280,                                 !- WMO Number
  42.93,                                  !- Latitude {deg}
  -78.73,                                 !- Longitude {deg}
  -5,                                     !- Time Zone {hr}
  215,                                    !- Elevation {m}
  /Users/nmoore/github/urbanopt-example-geojson-project/example_project/weather/USA_NY_Buffalo-Greater.Buffalo.Intl.AP.725280_TMY3.epw, !- Url
  6B50E0FF,                               !- Checksum
  ,                                       !- Start Date Actual Year
  Sunday;                                 !- Start Day of Week

OS:YearDescription,
  {1abffb77-0d14-4eef-b3e0-55f7fe5f72b2}, !- Handle
  2007,                                   !- Calendar Year
  ,                                       !- Day of Week for Start Day
  ;                                       !- Is Leap Year

OS:Site,
  {4facebfa-6ed1-47a0-b759-e676a40ac544}, !- Handle
  Buffalo Niagara Intl Ap_NY,             !- Name
  42.93,                                  !- Latitude {deg}
  -78.73,                                 !- Longitude {deg}
  -5,                                     !- Time Zone {hr}
  215,                                    !- Elevation {m}
  Suburbs,                                !- Terrain
  Yes;                                    !- Keep Site Location Information

OS:RunPeriodControl:DaylightSavingTime,
  {5f59f741-bdf9-40da-9f5c-38b19d183c37}, !- Handle
  Mar 12,                                 !- Start Date
  Nov 5;                                  !- End Date

OS:Site:GroundTemperature:Shallow,
  {ab8ca0b5-1141-4de6-899f-a6f9a9f45ef9}, !- Handle
  4.30207395723828,                       !- January Surface Ground Temperature {C}
  2.29327249652502,                       !- February Surface Ground Temperature {C}
  2.13240047156047,                       !- March Surface Ground Temperature {C}
  3.08567940719286,                       !- April Surface Ground Temperature {C}
  6.91256312497526,                       !- May Surface Ground Temperature {C}
  10.7216195949507,                       !- June Surface Ground Temperature {C}
  14.0238679822574,                       !- July Surface Ground Temperature {C}
  16.1157611184724,                       !- August Surface Ground Temperature {C}
  16.2934789303462,                       !- September Surface Ground Temperature {C}
  14.5920754632847,                       !- October Surface Ground Temperature {C}
  11.374036348653,                        !- November Surface Ground Temperature {C}
  7.68182621661674;                       !- December Surface Ground Temperature {C}

OS:ThermalZone,
  {03695b3e-5fca-45a8-aa4b-cffb15547fe7}, !- Handle
  conditioned space,                      !- Name
  1,                                      !- Multiplier
  ,                                       !- Ceiling Height {m}
  692.06373070848,                        !- Volume {m3}
  ,                                       !- Floor Area {m2}
  ,                                       !- Zone Inside Convection Algorithm
  ,                                       !- Zone Outside Convection Algorithm
  ,                                       !- Zone Conditioning Equipment List Name
  {74677316-59fd-4fd2-90bc-13f38d332221}, !- Zone Air Inlet Port List
  {1fb4cd30-5c8f-4fae-ba92-55baad95d69d}, !- Zone Air Exhaust Port List
  {4536b1ef-be3e-4f17-81f6-4c0b12ee5c28}, !- Zone Air Node Name
  {c00d7b95-d96d-4448-b2c8-ad32d7b7a81f}, !- Zone Return Air Port List
  ,                                       !- Primary Daylighting Control Name
  ,                                       !- Fraction of Zone Controlled by Primary Daylighting Control
  ,                                       !- Secondary Daylighting Control Name
  ,                                       !- Fraction of Zone Controlled by Secondary Daylighting Control
  ,                                       !- Illuminance Map Name
  ,                                       !- Group Rendering Name
  {727c4854-80fd-4e59-868f-5a90a5e6c3b1}, !- Thermostat Name
  No;                                     !- Use Ideal Air Loads

OS:Node,
  {3fb38723-8516-498c-aa63-40b1749a606c}, !- Handle
  Node 1,                                 !- Name
  {4536b1ef-be3e-4f17-81f6-4c0b12ee5c28}, !- Inlet Port
  ;                                       !- Outlet Port

OS:Connection,
  {4536b1ef-be3e-4f17-81f6-4c0b12ee5c28}, !- Handle
  {03695b3e-5fca-45a8-aa4b-cffb15547fe7}, !- Source Object
  11,                                     !- Outlet Port
  {3fb38723-8516-498c-aa63-40b1749a606c}, !- Target Object
  2;                                      !- Inlet Port

OS:PortList,
  {74677316-59fd-4fd2-90bc-13f38d332221}, !- Handle
  {03695b3e-5fca-45a8-aa4b-cffb15547fe7}, !- HVAC Component
  {04d6e226-fc72-4b71-abdd-0aa10835d04f}; !- Port 1

OS:PortList,
  {1fb4cd30-5c8f-4fae-ba92-55baad95d69d}, !- Handle
  {03695b3e-5fca-45a8-aa4b-cffb15547fe7}; !- HVAC Component

OS:PortList,
  {c00d7b95-d96d-4448-b2c8-ad32d7b7a81f}, !- Handle
  {03695b3e-5fca-45a8-aa4b-cffb15547fe7}, !- HVAC Component
  {203198b3-a99d-4157-b2fd-70227760b33e}; !- Port 1

OS:Sizing:Zone,
  {3182a715-c365-427a-a56e-f385415245fa}, !- Handle
  {03695b3e-5fca-45a8-aa4b-cffb15547fe7}, !- Zone or ZoneList Name
  SupplyAirTemperature,                   !- Zone Cooling Design Supply Air Temperature Input Method
  14,                                     !- Zone Cooling Design Supply Air Temperature {C}
  11.11,                                  !- Zone Cooling Design Supply Air Temperature Difference {deltaC}
  SupplyAirTemperature,                   !- Zone Heating Design Supply Air Temperature Input Method
  40,                                     !- Zone Heating Design Supply Air Temperature {C}
  11.11,                                  !- Zone Heating Design Supply Air Temperature Difference {deltaC}
  0.0085,                                 !- Zone Cooling Design Supply Air Humidity Ratio {kg-H2O/kg-air}
  0.008,                                  !- Zone Heating Design Supply Air Humidity Ratio {kg-H2O/kg-air}
  ,                                       !- Zone Heating Sizing Factor
  ,                                       !- Zone Cooling Sizing Factor
  DesignDay,                              !- Cooling Design Air Flow Method
  ,                                       !- Cooling Design Air Flow Rate {m3/s}
  ,                                       !- Cooling Minimum Air Flow per Zone Floor Area {m3/s-m2}
  ,                                       !- Cooling Minimum Air Flow {m3/s}
  ,                                       !- Cooling Minimum Air Flow Fraction
  DesignDay,                              !- Heating Design Air Flow Method
  ,                                       !- Heating Design Air Flow Rate {m3/s}
  ,                                       !- Heating Maximum Air Flow per Zone Floor Area {m3/s-m2}
  ,                                       !- Heating Maximum Air Flow {m3/s}
  ,                                       !- Heating Maximum Air Flow Fraction
  No,                                     !- Account for Dedicated Outdoor Air System
  NeutralSupplyAir,                       !- Dedicated Outdoor Air System Control Strategy
  autosize,                               !- Dedicated Outdoor Air Low Setpoint Temperature for Design {C}
  autosize,                               !- Dedicated Outdoor Air High Setpoint Temperature for Design {C}
  Sensible Load Only No Latent Load,      !- Zone Load Sizing Method
  HumidityRatioDifference,                !- Zone Latent Cooling Design Supply Air Humidity Ratio Input Method
  ,                                       !- Zone Dehumidification Design Supply Air Humidity Ratio {kgWater/kgDryAir}
  0.005,                                  !- Zone Cooling Design Supply Air Humidity Ratio Difference {kgWater/kgDryAir}
  HumidityRatioDifference,                !- Zone Latent Heating Design Supply Air Humidity Ratio Input Method
  ,                                       !- Zone Humidification Design Supply Air Humidity Ratio {kgWater/kgDryAir}
  0.005,                                  !- Zone Humidification Design Supply Air Humidity Ratio Difference {kgWater/kgDryAir}
  ,                                       !- Zone Humidistat Dehumidification Set Point Schedule Name
  ,                                       !- Zone Humidistat Humidification Set Point Schedule Name
  ,                                       !- Design Zone Air Distribution Effectiveness in Cooling Mode
  ,                                       !- Design Zone Air Distribution Effectiveness in Heating Mode
  ,                                       !- Design Zone Secondary Recirculation Fraction {dimensionless}
  ,                                       !- Design Minimum Zone Ventilation Efficiency {dimensionless}
  Coincident;                             !- Sizing Option

OS:ZoneHVAC:EquipmentList,
  {268af77d-d37e-451d-bd44-2bcf673d3c28}, !- Handle
  Zone HVAC Equipment List 1,             !- Name
  {03695b3e-5fca-45a8-aa4b-cffb15547fe7}, !- Thermal Zone
  ,                                       !- Load Distribution Scheme
  {e262452f-e925-4666-8a1a-a21d949a7cd3}, !- Zone Equipment 1
  1,                                      !- Zone Equipment Cooling Sequence 1
  1,                                      !- Zone Equipment Heating or No-Load Sequence 1
  {0461e520-d246-4428-a825-53adf4f0e480}, !- Zone Equipment Sequential Cooling Fraction Schedule Name 1
  {13cefb97-a8ba-4a2d-8299-746db33f69ed}; !- Zone Equipment Sequential Heating Fraction Schedule Name 1

OS:AdditionalProperties,
  {85dcc073-fc36-4932-b376-5415946dcd1d}, !- Handle
  {03695b3e-5fca-45a8-aa4b-cffb15547fe7}, !- Object Name
  ObjectType,                             !- Feature Name 1
  String,                                 !- Feature Data Type 1
  conditioned space;                      !- Feature Value 1

OS:Space,
  {5d4fa5ef-f5e2-48fc-89f9-b14a58ee96cf}, !- Handle
  conditioned space 1,                    !- Name
  ,                                       !- Space Type Name
  ,                                       !- Default Construction Set Name
  ,                                       !- Default Schedule Set Name
  ,                                       !- Direction of Relative North {deg}
  ,                                       !- X Origin {m}
  ,                                       !- Y Origin {m}
  ,                                       !- Z Origin {m}
  ,                                       !- Building Story Name
  {03695b3e-5fca-45a8-aa4b-cffb15547fe7}, !- Thermal Zone Name
  ,                                       !- Part of Total Floor Area
  ,                                       !- Design Specification Outdoor Air Object Name
  ,                                       !- Building Unit Name
  692.06373070848;                        !- Volume {m3}

OS:Schedule:Ruleset,
  {7da9c26b-16be-4b10-a2a1-9aa6d0b81126}, !- Handle
  heating setpoint,                       !- Name
  {c88fb710-25cd-44b4-94ed-177dafdcc346}, !- Schedule Type Limits Name
  {371f16d0-b2d7-42e4-bd96-7e49a1169626}; !- Default Day Schedule Name

OS:Schedule:Day,
  {371f16d0-b2d7-42e4-bd96-7e49a1169626}, !- Handle
  heating setpoint default day,           !- Name
  {c88fb710-25cd-44b4-94ed-177dafdcc346}, !- Schedule Type Limits Name
  ,                                       !- Interpolate to Timestep
  24,                                     !- Hour 1
  0,                                      !- Minute 1
  0;                                      !- Value Until Time 1

OS:Schedule:Rule,
  {2e53e51f-9f0e-4081-b396-066ccac13260}, !- Handle
  heating setpoint allday rule,           !- Name
  {7da9c26b-16be-4b10-a2a1-9aa6d0b81126}, !- Schedule Ruleset Name
  0,                                      !- Rule Order
  {4a294c9c-45c8-4d56-a9cf-d845b16add9c}, !- Day Schedule Name
  Yes,                                    !- Apply Sunday
  Yes,                                    !- Apply Monday
  Yes,                                    !- Apply Tuesday
  Yes,                                    !- Apply Wednesday
  Yes,                                    !- Apply Thursday
  Yes,                                    !- Apply Friday
  Yes,                                    !- Apply Saturday
  DateRange,                              !- Date Specification Type
  1,                                      !- Start Month
  1,                                      !- Start Day
  12,                                     !- End Month
  31;                                     !- End Day

OS:Schedule:Day,
  {4a294c9c-45c8-4d56-a9cf-d845b16add9c}, !- Handle
  heating setpoint day,                   !- Name
  {c88fb710-25cd-44b4-94ed-177dafdcc346}, !- Schedule Type Limits Name
  ,                                       !- Interpolate to Timestep
  24,                                     !- Hour 1
  0,                                      !- Minute 1
  20;                                     !- Value Until Time 1

OS:Schedule:Ruleset,
  {47588f73-ca26-4e10-9fe6-156bbac0800a}, !- Handle
  cooling setpoint,                       !- Name
  {c88fb710-25cd-44b4-94ed-177dafdcc346}, !- Schedule Type Limits Name
  {34b0114a-f7cb-42d6-a6a4-246e597c00b0}; !- Default Day Schedule Name

OS:Schedule:Day,
  {34b0114a-f7cb-42d6-a6a4-246e597c00b0}, !- Handle
  cooling setpoint default day,           !- Name
  {c88fb710-25cd-44b4-94ed-177dafdcc346}, !- Schedule Type Limits Name
  ,                                       !- Interpolate to Timestep
  24,                                     !- Hour 1
  0,                                      !- Minute 1
  0;                                      !- Value Until Time 1

OS:Schedule:Rule,
  {df820ba5-5460-4109-ab6d-110cbcc25255}, !- Handle
  cooling setpoint allday rule,           !- Name
  {47588f73-ca26-4e10-9fe6-156bbac0800a}, !- Schedule Ruleset Name
  0,                                      !- Rule Order
  {e666dc11-99f0-4cb8-82f8-99881023e472}, !- Day Schedule Name
  Yes,                                    !- Apply Sunday
  Yes,                                    !- Apply Monday
  Yes,                                    !- Apply Tuesday
  Yes,                                    !- Apply Wednesday
  Yes,                                    !- Apply Thursday
  Yes,                                    !- Apply Friday
  Yes,                                    !- Apply Saturday
  DateRange,                              !- Date Specification Type
  1,                                      !- Start Month
  1,                                      !- Start Day
  12,                                     !- End Month
  31;                                     !- End Day

OS:Schedule:Day,
  {e666dc11-99f0-4cb8-82f8-99881023e472}, !- Handle
  cooling setpoint day,                   !- Name
  {c88fb710-25cd-44b4-94ed-177dafdcc346}, !- Schedule Type Limits Name
  ,                                       !- Interpolate to Timestep
  24,                                     !- Hour 1
  0,                                      !- Minute 1
  25.5555555555556;                       !- Value Until Time 1

OS:ThermostatSetpoint:DualSetpoint,
  {727c4854-80fd-4e59-868f-5a90a5e6c3b1}, !- Handle
  conditioned space temperature setpoint, !- Name
  {7da9c26b-16be-4b10-a2a1-9aa6d0b81126}, !- Heating Setpoint Temperature Schedule Name
  {47588f73-ca26-4e10-9fe6-156bbac0800a}, !- Cooling Setpoint Temperature Schedule Name
  0;                                      !- Temperature Difference Between Cutout And Setpoint {deltaC}

OS:ScheduleTypeLimits,
  {c88fb710-25cd-44b4-94ed-177dafdcc346}, !- Handle
  Temperature,                            !- Name
  ,                                       !- Lower Limit Value
  ,                                       !- Upper Limit Value
  Continuous,                             !- Numeric Type
  Temperature;                            !- Unit Type

OS:Surface,
  {8d0b6897-9d52-4124-a153-4eb111f0053f}, !- Handle
  Roof1,                                  !- Name
  RoofCeiling,                            !- Surface Type
  {7ceaff93-4aaa-4ac2-8f8a-10fe7305b1a0}, !- Construction Name
  {ff86ccb8-7ecf-4723-88a2-8d754b7dbec4}, !- Space Name
  Outdoors,                               !- Outside Boundary Condition
  ,                                       !- Outside Boundary Condition Object
  SunExposed,                             !- Sun Exposure
  WindExposed,                            !- Wind Exposure
  ,                                       !- View Factor to Ground
  ,                                       !- Number of Vertices
  -26.9347048849634, 58.0557891618865, 2.4384, !- X,Y,Z Vertex 1 {m}
  -26.9347048849634, 46.7895631136661, 8.0715130241102, !- X,Y,Z Vertex 2 {m}
  -14.3386812381136, 46.7895631136661, 8.0715130241102, !- X,Y,Z Vertex 3 {m}
  -14.3386812381136, 58.0557891618865, 2.4384; !- X,Y,Z Vertex 4 {m}

OS:AdditionalProperties,
  {bfa32987-4ff8-455a-afed-d38e00c740d4}, !- Handle
  {8d0b6897-9d52-4124-a153-4eb111f0053f}, !- Object Name
  Length,                                 !- Feature Name 1
  Double,                                 !- Feature Data Type 1
  41.325536899113608,                     !- Feature Value 1
  Width,                                  !- Feature Name 2
  Double,                                 !- Feature Data Type 2
  41.325536899113601,                     !- Feature Value 2
  Azimuth,                                !- Feature Name 3
  Integer,                                !- Feature Data Type 3
  0,                                      !- Feature Value 3
  Tilt,                                   !- Feature Name 4
  Double,                                 !- Feature Data Type 4
  0.5,                                    !- Feature Value 4
  SurfaceType,                            !- Feature Name 5
  String,                                 !- Feature Data Type 5
  Roof;                                   !- Feature Value 5

OS:ThermalZone,
  {ae30259d-d6b9-47a3-a915-3e911e979523}, !- Handle
  attic - vented,                         !- Name
  1,                                      !- Multiplier
  ,                                       !- Ceiling Height {m}
  356.389957095237,                       !- Volume {m3}
  ,                                       !- Floor Area {m2}
  ,                                       !- Zone Inside Convection Algorithm
  ,                                       !- Zone Outside Convection Algorithm
  ,                                       !- Zone Conditioning Equipment List Name
  {00921152-847c-40b2-b43e-2e435bc5abd3}, !- Zone Air Inlet Port List
  {90965ba3-315e-4656-9923-4650fae513fb}, !- Zone Air Exhaust Port List
  {9bbac98f-d8b5-462e-96ca-8dc4ba86d26c}, !- Zone Air Node Name
  {2a42d039-110c-4afa-8867-3e209b26f4a4}, !- Zone Return Air Port List
  ,                                       !- Primary Daylighting Control Name
  ,                                       !- Fraction of Zone Controlled by Primary Daylighting Control
  ,                                       !- Secondary Daylighting Control Name
  ,                                       !- Fraction of Zone Controlled by Secondary Daylighting Control
  ,                                       !- Illuminance Map Name
  ,                                       !- Group Rendering Name
  ,                                       !- Thermostat Name
  No;                                     !- Use Ideal Air Loads

OS:Node,
  {a94dd460-655a-408d-994b-a9a449ffc8a4}, !- Handle
  Node 2,                                 !- Name
  {9bbac98f-d8b5-462e-96ca-8dc4ba86d26c}, !- Inlet Port
  ;                                       !- Outlet Port

OS:Connection,
  {9bbac98f-d8b5-462e-96ca-8dc4ba86d26c}, !- Handle
  {ae30259d-d6b9-47a3-a915-3e911e979523}, !- Source Object
  11,                                     !- Outlet Port
  {a94dd460-655a-408d-994b-a9a449ffc8a4}, !- Target Object
  2;                                      !- Inlet Port

OS:PortList,
  {00921152-847c-40b2-b43e-2e435bc5abd3}, !- Handle
  {ae30259d-d6b9-47a3-a915-3e911e979523}; !- HVAC Component

OS:PortList,
  {90965ba3-315e-4656-9923-4650fae513fb}, !- Handle
  {ae30259d-d6b9-47a3-a915-3e911e979523}; !- HVAC Component

OS:PortList,
  {2a42d039-110c-4afa-8867-3e209b26f4a4}, !- Handle
  {ae30259d-d6b9-47a3-a915-3e911e979523}; !- HVAC Component

OS:Sizing:Zone,
  {47510b24-42fe-4fc4-bd41-08a7544c4c41}, !- Handle
  {ae30259d-d6b9-47a3-a915-3e911e979523}, !- Zone or ZoneList Name
  SupplyAirTemperature,                   !- Zone Cooling Design Supply Air Temperature Input Method
  14,                                     !- Zone Cooling Design Supply Air Temperature {C}
  11.11,                                  !- Zone Cooling Design Supply Air Temperature Difference {deltaC}
  SupplyAirTemperature,                   !- Zone Heating Design Supply Air Temperature Input Method
  40,                                     !- Zone Heating Design Supply Air Temperature {C}
  11.11,                                  !- Zone Heating Design Supply Air Temperature Difference {deltaC}
  0.0085,                                 !- Zone Cooling Design Supply Air Humidity Ratio {kg-H2O/kg-air}
  0.008,                                  !- Zone Heating Design Supply Air Humidity Ratio {kg-H2O/kg-air}
  ,                                       !- Zone Heating Sizing Factor
  ,                                       !- Zone Cooling Sizing Factor
  DesignDay,                              !- Cooling Design Air Flow Method
  ,                                       !- Cooling Design Air Flow Rate {m3/s}
  ,                                       !- Cooling Minimum Air Flow per Zone Floor Area {m3/s-m2}
  ,                                       !- Cooling Minimum Air Flow {m3/s}
  ,                                       !- Cooling Minimum Air Flow Fraction
  DesignDay,                              !- Heating Design Air Flow Method
  ,                                       !- Heating Design Air Flow Rate {m3/s}
  ,                                       !- Heating Maximum Air Flow per Zone Floor Area {m3/s-m2}
  ,                                       !- Heating Maximum Air Flow {m3/s}
  ,                                       !- Heating Maximum Air Flow Fraction
  No,                                     !- Account for Dedicated Outdoor Air System
  NeutralSupplyAir,                       !- Dedicated Outdoor Air System Control Strategy
  autosize,                               !- Dedicated Outdoor Air Low Setpoint Temperature for Design {C}
  autosize,                               !- Dedicated Outdoor Air High Setpoint Temperature for Design {C}
  Sensible Load Only No Latent Load,      !- Zone Load Sizing Method
  HumidityRatioDifference,                !- Zone Latent Cooling Design Supply Air Humidity Ratio Input Method
  ,                                       !- Zone Dehumidification Design Supply Air Humidity Ratio {kgWater/kgDryAir}
  0.005,                                  !- Zone Cooling Design Supply Air Humidity Ratio Difference {kgWater/kgDryAir}
  HumidityRatioDifference,                !- Zone Latent Heating Design Supply Air Humidity Ratio Input Method
  ,                                       !- Zone Humidification Design Supply Air Humidity Ratio {kgWater/kgDryAir}
  0.005,                                  !- Zone Humidification Design Supply Air Humidity Ratio Difference {kgWater/kgDryAir}
  ,                                       !- Zone Humidistat Dehumidification Set Point Schedule Name
  ,                                       !- Zone Humidistat Humidification Set Point Schedule Name
  ,                                       !- Design Zone Air Distribution Effectiveness in Cooling Mode
  ,                                       !- Design Zone Air Distribution Effectiveness in Heating Mode
  ,                                       !- Design Zone Secondary Recirculation Fraction {dimensionless}
  ,                                       !- Design Minimum Zone Ventilation Efficiency {dimensionless}
  Coincident;                             !- Sizing Option

OS:ZoneHVAC:EquipmentList,
  {b41700cb-66c0-47ea-a37b-b0d4570e9556}, !- Handle
  Zone HVAC Equipment List 2,             !- Name
  {ae30259d-d6b9-47a3-a915-3e911e979523}; !- Thermal Zone

OS:AdditionalProperties,
  {dd0f35a5-a095-4a18-a418-a75048dbe8c4}, !- Handle
  {ae30259d-d6b9-47a3-a915-3e911e979523}, !- Object Name
  ObjectType,                             !- Feature Name 1
  String,                                 !- Feature Data Type 1
  attic - vented;                         !- Feature Value 1

OS:Space,
  {ff86ccb8-7ecf-4723-88a2-8d754b7dbec4}, !- Handle
  attic - vented 1,                       !- Name
  ,                                       !- Space Type Name
  ,                                       !- Default Construction Set Name
  ,                                       !- Default Schedule Set Name
  ,                                       !- Direction of Relative North {deg}
  ,                                       !- X Origin {m}
  ,                                       !- Y Origin {m}
  ,                                       !- Z Origin {m}
  ,                                       !- Building Story Name
  {ae30259d-d6b9-47a3-a915-3e911e979523}, !- Thermal Zone Name
  ,                                       !- Part of Total Floor Area
  ,                                       !- Design Specification Outdoor Air Object Name
  ,                                       !- Building Unit Name
  356.389957095237;                       !- Volume {m3}

OS:Material,
  {49c25e5f-f31e-4185-b9dc-033fbea71059}, !- Handle
  asphalt or fiberglass shingles,         !- Name
  Rough,                                  !- Roughness
  0.00635,                                !- Thickness {m}
  0.162714,                               !- Conductivity {W/m-K}
  1121.4,                                 !- Density {kg/m3}
  1465.45,                                !- Specific Heat {J/kg-K}
  0.9,                                    !- Thermal Absorptance
  0.85,                                   !- Solar Absorptance