
OS:Version,
  {4f683cb9-6b84-4d9d-b932-9494d7f80428}, !- Handle
  3.10.0;                                 !- Version Identifier

OS:SimulationControl,
  {8d88f61f-ad9b-49d9-a6f3-db5ff0d988b5}, !- Handle
  ,                                       !- Do Zone Sizing Calculation
  ,                                       !- Do System Sizing Calculation
  ,                                       !- Do Plant Sizing Calculation
  No;                                     !- Run Simulation for Sizing Periods

OS:Timestep,
  {e4831d8f-de1c-4cc8-8b66-1a187add133c}, !- Handle
  1;                                      !- Number of Timesteps per Hour

OS:ShadowCalculation,
  {e69272fd-bba9-49db-bb72-33de8596824b}, !- Handle
  PolygonClipping,                        !- Shading Calculation Method
  ,                                       !- Shading Calculation Update Frequency Method
  20,                                     !- Shading Calculation Update Frequency
  200,                                    !- Maximum Figures in Shadow Overlap Calculations
  ,                                       !- Polygon Clipping Algorithm
  512,                                    !- Pixel Counting Resolution
  ,                                       !- Sky Diffuse Modeling Algorithm
  No,                                     !- Output External Shading Calculation Results
  No,                                     !- Disable Self-Shading Within Shading Zone Groups
  No;                                     !- Disable Self-Shading From Shading Zone Groups to Other Zones

OS:SurfaceConvectionAlgorithm:Outside,
  {8c8d6d59-ef1c-4252-8b4e-09e067e16457}, !- Handle
  DOE-2;                                  !- Algorithm

OS:SurfaceConvectionAlgorithm:Inside,
  {9a3f88d6-4314-4f32-add2-1367031cfa5a}, !- Handle
  TARP;                                   !- Algorithm

OS:ZoneCapacitanceMultiplier:ResearchSpecial,
  {e85e1a9a-a317-477f-b2e7-110d4b3d68db}, !- Handle
  7,                                      !- Temperature Capacity Multiplier
  15,                                     !- Humidity Capacity Multiplier
  ;                                       !- Carbon Dioxide Capacity Multiplier

OS:ConvergenceLimits,
  {ce61d559-60b5-4f7c-93ce-fba245b47389}, !- Handle
  0;                                      !- Minimum System Timestep {minutes}

OS:RunPeriod,
  {8f669118-8522-4997-8e5b-76fb0412035b}, !- Handle
  Run Period 1,                           !- Name
  1,                                      !- Begin Month
  1,                                      !- Begin Day of Month
  12,                                     !- End Month
  31,                                     !- End Day of Month
  ,                                       !- Use Weather File Holidays and Special Days
  ,                                       !- Use Weather File Daylight Saving Period
  ,                                       !- Apply Weekend Holiday Rule
  ,                                       !- Use Weather File Rain Indicators
  ,                                       !- Use Weather File Snow Indicators
  ;                                       !- Number of Times Runperiod to be Repeated

OS:PerformancePrecisionTradeoffs,
  {bf4af303-63a6-4ee6-8dd7-4c93c19b7875}, !- Handle
  ,                                       !- Use Coil Direct Solutions
  CarrollMRT;                             !- Zone Radiant Exchange Algorithm

OS:WeatherFile,
  {d95a13a4-6f28-4fb1-8755-56870fe42336}, !- Handle
  Buffalo Niagara Intl Ap,                !- City
  NY,                                     !- State Province Region
  USA,                                    !- Country
  TMY3,                                   !- Data Source
  725280,                                 !- WMO Number
  42.93,                                  !- Latitude {deg}
  -78.73,                                 !- Longitude {deg}
  -5,                                     !- Time Zone {hr}
  215,                                    !- Elevation {m}
  /Users/nmoore/github/urbanopt-example-geojson-project/example_project/weather/USA_NY_Buffalo-Greater.Buffalo.Intl.AP.725280_TMY3.epw, !- Url
  6B50E0FF,                               !- Checksum
  ,                                       !- Start Date Actual Year
  Sunday;                                 !- Start Day of Week

OS:YearDescription,
  {044c6067-8d5d-4843-b0cb-bf55b9051a03}, !- Handle
  2007,                                   !- Calendar Year
  ,                                       !- Day of Week for Start Day
  ;                                       !- Is Leap Year

OS:Site,
  {4e041ca1-1b26-48df-810a-9111da5eeca6}, !- Handle
  Buffalo Niagara Intl Ap_NY,             !- Name
  42.93,                                  !- Latitude {deg}
  -78.73,                                 !- Longitude {deg}
  -5,                                     !- Time Zone {hr}
  215,                                    !- Elevation {m}
  Suburbs,                                !- Terrain
  Yes;                                    !- Keep Site Location Information

OS:RunPeriodControl:DaylightSavingTime,
  {d97197da-cef6-476a-83dd-b316c60755a4}, !- Handle
  Mar 12,                                 !- Start Date
  Nov 5;                                  !- End Date

OS:Site:GroundTemperature:Shallow,
  {3a9d65a8-9e27-4c0d-a114-7157f96855d2}, !- Handle
  4.30207395723828,                       !- January Surface Ground Temperature {C}
  2.29327249652502,                       !- February Surface Ground Temperature {C}
  2.13240047156047,                       !- March Surface Ground Temperature {C}
  3.08567940719286,                       !- April Surface Ground Temperature {C}
  6.91256312497526,                       !- May Surface Ground Temperature {C}
  10.7216195949507,                       !- June Surface Ground Temperature {C}
  14.0238679822574,                       !- July Surface Ground Temperature {C}
  16.1157611184724,                       !- August Surface Ground Temperature {C}
  16.2934789303462,                       !- September Surface Ground Temperature {C}
  14.5920754632847,                       !- October Surface Ground Temperature {C}
  11.374036348653,                        !- November Surface Ground Temperature {C}
  7.68182621661674;                       !- December Surface Ground Temperature {C}

OS:ThermalZone,
  {82121218-0054-4f93-9161-9a6664dbecbf}, !- Handle
  conditioned space,                      !- Name
  1,                                      !- Multiplier
  ,                                       !- Ceiling Height {m}
  692.06373070848,                        !- Volume {m3}
  ,                                       !- Floor Area {m2}
  ,                                       !- Zone Inside Convection Algorithm
  ,                                       !- Zone Outside Convection Algorithm
  ,                                       !- Zone Conditioning Equipment List Name
  {29508a1c-a325-4c3f-8f72-5ac6dde3cd20}, !- Zone Air Inlet Port List
  {fbe95cd5-edec-4b38-a8a3-6f9af1620060}, !- Zone Air Exhaust Port List
  {51139df8-5a5d-4e86-8d3a-8c9aab1fb181}, !- Zone Air Node Name
  {dbf17a9c-26fd-4e7c-9f80-9965d44d6f29}, !- Zone Return Air Port List
  ,                                       !- Primary Daylighting Control Name
  ,                                       !- Fraction of Zone Controlled by Primary Daylighting Control
  ,                                       !- Secondary Daylighting Control Name
  ,                                       !- Fraction of Zone Controlled by Secondary Daylighting Control
  ,                                       !- Illuminance Map Name
  ,                                       !- Group Rendering Name
  {b50b820a-0c1d-474b-a829-5c17093748cb}, !- Thermostat Name
  No;                                     !- Use Ideal Air Loads

OS:Node,
  {19a8e8a7-d599-43c6-9a0a-1664fd35d8cb}, !- Handle
  Node 1,                                 !- Name
  {51139df8-5a5d-4e86-8d3a-8c9aab1fb181}, !- Inlet Port
  ;                                       !- Outlet Port

OS:Connection,
  {51139df8-5a5d-4e86-8d3a-8c9aab1fb181}, !- Handle
  {82121218-0054-4f93-9161-9a6664dbecbf}, !- Source Object
  11,                                     !- Outlet Port
  {19a8e8a7-d599-43c6-9a0a-1664fd35d8cb}, !- Target Object
  2;                                      !- Inlet Port

OS:PortList,
  {29508a1c-a325-4c3f-8f72-5ac6dde3cd20}, !- Handle
  {82121218-0054-4f93-9161-9a6664dbecbf}, !- HVAC Component
  {57836373-d87d-458f-87ed-a518559608b5}; !- Port 1

OS:PortList,
  {fbe95cd5-edec-4b38-a8a3-6f9af1620060}, !- Handle
  {82121218-0054-4f93-9161-9a6664dbecbf}; !- HVAC Component

OS:PortList,
  {dbf17a9c-26fd-4e7c-9f80-9965d44d6f29}, !- Handle
  {82121218-0054-4f93-9161-9a6664dbecbf}, !- HVAC Component
  {4255c44b-3a21-4f00-ae4b-feabd188f1ac}; !- Port 1

OS:Sizing:Zone,
  {a998a3f3-2ecd-464f-b899-3f420a228482}, !- Handle
  {82121218-0054-4f93-9161-9a6664dbecbf}, !- Zone or ZoneList Name
  SupplyAirTemperature,                   !- Zone Cooling Design Supply Air Temperature Input Method
  14,                                     !- Zone Cooling Design Supply Air Temperature {C}
  11.11,                                  !- Zone Cooling Design Supply Air Temperature Difference {deltaC}
  SupplyAirTemperature,                   !- Zone Heating Design Supply Air Temperature Input Method
  40,                                     !- Zone Heating Design Supply Air Temperature {C}
  11.11,                                  !- Zone Heating Design Supply Air Temperature Difference {deltaC}
  0.0085,                                 !- Zone Cooling Design Supply Air Humidity Ratio {kg-H2O/kg-air}
  0.008,                                  !- Zone Heating Design Supply Air Humidity Ratio {kg-H2O/kg-air}
  ,                                       !- Zone Heating Sizing Factor
  ,                                       !- Zone Cooling Sizing Factor
  DesignDay,                              !- Cooling Design Air Flow Method
  ,                                       !- Cooling Design Air Flow Rate {m3/s}
  ,                                       !- Cooling Minimum Air Flow per Zone Floor Area {m3/s-m2}
  ,                                       !- Cooling Minimum Air Flow {m3/s}
  ,                                       !- Cooling Minimum Air Flow Fraction
  DesignDay,                              !- Heating Design Air Flow Method
  ,                                       !- Heating Design Air Flow Rate {m3/s}
  ,                                       !- Heating Maximum Air Flow per Zone Floor Area {m3/s-m2}
  ,                                       !- Heating Maximum Air Flow {m3/s}
  ,                                       !- Heating Maximum Air Flow Fraction
  No,                                     !- Account for Dedicated Outdoor Air System
  NeutralSupplyAir,                       !- Dedicated Outdoor Air System Control Strategy
  autosize,                               !- Dedicated Outdoor Air Low Setpoint Temperature for Design {C}
  autosize,                               !- Dedicated Outdoor Air High Setpoint Temperature for Design {C}
  Sensible Load Only No Latent Load,      !- Zone Load Sizing Method
  HumidityRatioDifference,                !- Zone Latent Cooling Design Supply Air Humidity Ratio Input Method
  ,                                       !- Zone Dehumidification Design Supply Air Humidity Ratio {kgWater/kgDryAir}
  0.005,                                  !- Zone Cooling Design Supply Air Humidity Ratio Difference {kgWater/kgDryAir}
  HumidityRatioDifference,                !- Zone Latent Heating Design Supply Air Humidity Ratio Input Method
  ,                                       !- Zone Humidification Design Supply Air Humidity Ratio {kgWater/kgDryAir}
  0.005,                                  !- Zone Humidification Design Supply Air Humidity Ratio Difference {kgWater/kgDryAir}
  ,                                       !- Zone Humidistat Dehumidification Set Point Schedule Name
  ,                                       !- Zone Humidistat Humidification Set Point Schedule Name
  ,                                       !- Design Zone Air Distribution Effectiveness in Cooling Mode
  ,                                       !- Design Zone Air Distribution Effectiveness in Heating Mode
  ,                                       !- Design Zone Secondary Recirculation Fraction {dimensionless}
  ,                                       !- Design Minimum Zone Ventilation Efficiency {dimensionless}
  Coincident;                             !- Sizing Option

OS:ZoneHVAC:EquipmentList,
  {5a7cee69-99f2-43fc-bfd7-45141e4c2b32}, !- Handle
  Zone HVAC Equipment List 1,             !- Name
  {82121218-0054-4f93-9161-9a6664dbecbf}, !- Thermal Zone
  ,                                       !- Load Distribution Scheme
  {60e253e3-b802-4d60-9b5e-492845ad05eb}, !- Zone Equipment 1
  1,                                      !- Zone Equipment Cooling Sequence 1
  1,                                      !- Zone Equipment Heating or No-Load Sequence 1
  {dbeeeab5-dc72-4d15-8bd4-279186e239c9}, !- Zone Equipment Sequential Cooling Fraction Schedule Name 1
  {ada846d2-e609-40fe-bda4-e7ccd0accbf3}; !- Zone Equipment Sequential Heating Fraction Schedule Name 1

OS:AdditionalProperties,
  {abfb12c1-378e-4484-941c-dd29ca65d9fa}, !- Handle
  {82121218-0054-4f93-9161-9a6664dbecbf}, !- Object Name
  ObjectType,                             !- Feature Name 1
  String,                                 !- Feature Data Type 1
  conditioned space;                      !- Feature Value 1

OS:Space,
  {ad71f117-fca1-4fe1-aea8-6d345ebac5f5}, !- Handle
  conditioned space 1,                    !- Name
  ,                                       !- Space Type Name
  ,                                       !- Default Construction Set Name
  ,                                       !- Default Schedule Set Name
  ,                                       !- Direction of Relative North {deg}
  ,                                       !- X Origin {m}
  ,                                       !- Y Origin {m}
  ,                                       !- Z Origin {m}
  ,                                       !- Building Story Name
  {82121218-0054-4f93-9161-9a6664dbecbf}, !- Thermal Zone Name
  ,                                       !- Part of Total Floor Area
  ,                                       !- Design Specification Outdoor Air Object Name
  ,                                       !- Building Unit Name
  692.06373070848;                        !- Volume {m3}

OS:Schedule:Ruleset,
  {7a9c145a-a8f3-433f-9b18-a22c87aba8e8}, !- Handle
  heating setpoint,                       !- Name
  {e0f739eb-989d-4551-b3da-64032b4de685}, !- Schedule Type Limits Name
  {26fe352c-ab96-41bc-bb62-8a0ff104bc35}; !- Default Day Schedule Name

OS:Schedule:Day,
  {26fe352c-ab96-41bc-bb62-8a0ff104bc35}, !- Handle
  heating setpoint default day,           !- Name
  {e0f739eb-989d-4551-b3da-64032b4de685}, !- Schedule Type Limits Name
  ,                                       !- Interpolate to Timestep
  24,                                     !- Hour 1
  0,                                      !- Minute 1
  0;                                      !- Value Until Time 1

OS:Schedule:Rule,
  {99fe626b-398c-4aba-95c8-66f5579cca6f}, !- Handle
  heating setpoint allday rule,           !- Name
  {7a9c145a-a8f3-433f-9b18-a22c87aba8e8}, !- Schedule Ruleset Name
  0,                                      !- Rule Order
  {d9beac64-65f6-4a5a-885e-c9ae76f96cf9}, !- Day Schedule Name
  Yes,                                    !- Apply Sunday
  Yes,                                    !- Apply Monday
  Yes,                                    !- Apply Tuesday
  Yes,                                    !- Apply Wednesday
  Yes,                                    !- Apply Thursday
  Yes,                                    !- Apply Friday
  Yes,                                    !- Apply Saturday
  DateRange,                              !- Date Specification Type
  1,                                      !- Start Month
  1,                                      !- Start Day
  12,                                     !- End Month
  31;                                     !- End Day

OS:Schedule:Day,
  {d9beac64-65f6-4a5a-885e-c9ae76f96cf9}, !- Handle
  heating setpoint day,                   !- Name
  {e0f739eb-989d-4551-b3da-64032b4de685}, !- Schedule Type Limits Name
  ,                                       !- Interpolate to Timestep
  24,                                     !- Hour 1
  0,                                      !- Minute 1
  20;                                     !- Value Until Time 1

OS:Schedule:Ruleset,
  {88459c68-1b66-4c97-9e1e-f61eeef430eb}, !- Handle
  cooling setpoint,                       !- Name
  {e0f739eb-989d-4551-b3da-64032b4de685}, !- Schedule Type Limits Name
  {e779034a-f46b-44ec-8476-d764113931d7}; !- Default Day Schedule Name

OS:Schedule:Day,
  {e779034a-f46b-44ec-8476-d764113931d7}, !- Handle
  cooling setpoint default day,           !- Name
  {e0f739eb-989d-4551-b3da-64032b4de685}, !- Schedule Type Limits Name
  ,                                       !- Interpolate to Timestep
  24,                                     !- Hour 1
  0,                                      !- Minute 1
  0;                                      !- Value Until Time 1

OS:Schedule:Rule,
  {bdce1c16-1590-49c0-89ff-5709ae4657e0}, !- Handle
  cooling setpoint allday rule,           !- Name
  {88459c68-1b66-4c97-9e1e-f61eeef430eb}, !- Schedule Ruleset Name
  0,                                      !- Rule Order
  {5ab48333-03cb-489b-88de-7221fabf2215}, !- Day Schedule Name
  Yes,                                    !- Apply Sunday
  Yes,                                    !- Apply Monday
  Yes,                                    !- Apply Tuesday
  Yes,                                    !- Apply Wednesday
  Yes,                                    !- Apply Thursday
  Yes,                                    !- Apply Friday
  Yes,                                    !- Apply Saturday
  DateRange,                              !- Date Specification Type
  1,                                      !- Start Month
  1,                                      !- Start Day
  12,                                     !- End Month
  31;                                     !- End Day

OS:Schedule:Day,
  {5ab48333-03cb-489b-88de-7221fabf2215}, !- Handle
  cooling setpoint day,                   !- Name
  {e0f739eb-989d-4551-b3da-64032b4de685}, !- Schedule Type Limits Name
  ,                                       !- Interpolate to Timestep
  24,                                     !- Hour 1
  0,                                      !- Minute 1
  25.5555555555556;                       !- Value Until Time 1

OS:ThermostatSetpoint:DualSetpoint,
  {b50b820a-0c1d-474b-a829-5c17093748cb}, !- Handle
  conditioned space temperature setpoint, !- Name
  {7a9c145a-a8f3-433f-9b18-a22c87aba8e8}, !- Heating Setpoint Temperature Schedule Name
  {88459c68-1b66-4c97-9e1e-f61eeef430eb}, !- Cooling Setpoint Temperature Schedule Name
  0;                                      !- Temperature Difference Between Cutout And Setpoint {deltaC}

OS:ScheduleTypeLimits,
  {e0f739eb-989d-4551-b3da-64032b4de685}, !- Handle
  Temperature,                            !- Name
  ,                                       !- Lower Limit Value
  ,                                       !- Upper Limit Value
  Continuous,                             !- Numeric Type
  Temperature;                            !- Unit Type

OS:Surface,
  {179f8876-6103-4948-9129-0397aeb6a161}, !- Handle
  Roof1,                                  !- Name
  RoofCeiling,                            !- Surface Type
  {51bcf323-d368-4af1-a6dc-690b1099cb42}, !- Construction Name
  {98745ef0-abad-434a-8e16-71785f719ac5}, !- Space Name
  Outdoors,                               !- Outside Boundary Condition
  ,                                       !- Outside Boundary Condition Object
  SunExposed,                             !- Sun Exposure
  WindExposed,                            !- Wind Exposure
  ,                                       !- View Factor to Ground
  ,                                       !- Number of Vertices
  -26.9347048849634, 58.0557891618865, 2.4384, !- X,Y,Z Vertex 1 {m}
  -26.9347048849634, 46.7895631136661, 8.0715130241102, !- X,Y,Z Vertex 2 {m}
  -14.3386812381136, 46.7895631136661, 8.0715130241102, !- X,Y,Z Vertex 3 {m}
  -14.3386812381136, 58.0557891618865, 2.4384; !- X,Y,Z Vertex 4 {m}

OS:AdditionalProperties,
  {4ac20558-63f2-4295-bd73-08b67232ef0c}, !- Handle
  {179f8876-6103-4948-9129-0397aeb6a161}, !- Object Name
  Length,                                 !- Feature Name 1
  Double,                                 !- Feature Data Type 1
  41.325536899113608,                     !- Feature Value 1
  Width,                                  !- Feature Name 2
  Double,                                 !- Feature Data Type 2
  41.325536899113601,                     !- Feature Value 2
  Azimuth,                                !- Feature Name 3
  Integer,                                !- Feature Data Type 3
  0,                                      !- Feature Value 3
  Tilt,                                   !- Feature Name 4
  Double,                                 !- Feature Data Type 4
  0.5,                                    !- Feature Value 4
  SurfaceType,                            !- Feature Name 5
  String,                                 !- Feature Data Type 5
  Roof;                                   !- Feature Value 5

OS:ThermalZone,
  {59ffa764-7656-4d59-8697-c05bda1f6ca3}, !- Handle
  attic - vented,                         !- Name
  1,                                      !- Multiplier
  ,                                       !- Ceiling Height {m}
  356.390921899745,                       !- Volume {m3}
  ,                                       !- Floor Area {m2}
  ,                                       !- Zone Inside Convection Algorithm
  ,                                       !- Zone Outside Convection Algorithm
  ,                                       !- Zone Conditioning Equipment List Name
  {fdbaa357-9477-4965-a235-e77da82e9ddf}, !- Zone Air Inlet Port List
  {5fcff0ed-4ec9-46f2-93d6-3131220b9fec}, !- Zone Air Exhaust Port List
  {8c5c1f0a-bd02-462d-878c-a0a10b9c016d}, !- Zone Air Node Name
  {b1f61bb6-129c-417c-96c2-01e73b11410d}, !- Zone Return Air Port List
  ,                                       !- Primary Daylighting Control Name
  ,                                       !- Fraction of Zone Controlled by Primary Daylighting Control
  ,                                       !- Secondary Daylighting Control Name
  ,                                       !- Fraction of Zone Controlled by Secondary Daylighting Control
  ,                                       !- Illuminance Map Name
  ,                                       !- Group Rendering Name
  ,                                       !- Thermostat Name
  No;                                     !- Use Ideal Air Loads

OS:Node,
  {71e681b0-2a24-4512-b53d-d79266590853}, !- Handle
  Node 2,                                 !- Name
  {8c5c1f0a-bd02-462d-878c-a0a10b9c016d}, !- Inlet Port
  ;                                       !- Outlet Port

OS:Connection,
  {8c5c1f0a-bd02-462d-878c-a0a10b9c016d}, !- Handle
  {59ffa764-7656-4d59-8697-c05bda1f6ca3}, !- Source Object
  11,                                     !- Outlet Port
  {71e681b0-2a24-4512-b53d-d79266590853}, !- Target Object
  2;                                      !- Inlet Port

OS:PortList,
  {fdbaa357-9477-4965-a235-e77da82e9ddf}, !- Handle
  {59ffa764-7656-4d59-8697-c05bda1f6ca3}; !- HVAC Component

OS:PortList,
  {5fcff0ed-4ec9-46f2-93d6-3131220b9fec}, !- Handle
  {59ffa764-7656-4d59-8697-c05bda1f6ca3}; !- HVAC Component

OS:PortList,
  {b1f61bb6-129c-417c-96c2-01e73b11410d}, !- Handle
  {59ffa764-7656-4d59-8697-c05bda1f6ca3}; !- HVAC Component

OS:Sizing:Zone,
  {7f85172e-3947-464a-b335-1a19c791a938}, !- Handle
  {59ffa764-7656-4d59-8697-c05bda1f6ca3}, !- Zone or ZoneList Name
  SupplyAirTemperature,                   !- Zone Cooling Design Supply Air Temperature Input Method
  14,                                     !- Zone Cooling Design Supply Air Temperature {C}
  11.11,                                  !- Zone Cooling Design Supply Air Temperature Difference {deltaC}
  SupplyAirTemperature,                   !- Zone Heating Design Supply Air Temperature Input Method
  40,                                     !- Zone Heating Design Supply Air Temperature {C}
  11.11,                                  !- Zone Heating Design Supply Air Temperature Difference {deltaC}
  0.0085,                                 !- Zone Cooling Design Supply Air Humidity Ratio {kg-H2O/kg-air}
  0.008,                                  !- Zone Heating Design Supply Air Humidity Ratio {kg-H2O/kg-air}
  ,                                       !- Zone Heating Sizing Factor
  ,                                       !- Zone Cooling Sizing Factor
  DesignDay,                              !- Cooling Design Air Flow Method
  ,                                       !- Cooling Design Air Flow Rate {m3/s}
  ,                                       !- Cooling Minimum Air Flow per Zone Floor Area {m3/s-m2}
  ,                                       !- Cooling Minimum Air Flow {m3/s}
  ,                                       !- Cooling Minimum Air Flow Fraction
  DesignDay,                              !- Heating Design Air Flow Method
  ,                                       !- Heating Design Air Flow Rate {m3/s}
  ,                                       !- Heating Maximum Air Flow per Zone Floor Area {m3/s-m2}
  ,                                       !- Heating Maximum Air Flow {m3/s}
  ,                                       !- Heating Maximum Air Flow Fraction
  No,                                     !- Account for Dedicated Outdoor Air System
  NeutralSupplyAir,                       !- Dedicated Outdoor Air System Control Strategy
  autosize,                               !- Dedicated Outdoor Air Low Setpoint Temperature for Design {C}
  autosize,                               !- Dedicated Outdoor Air High Setpoint Temperature for Design {C}
  Sensible Load Only No Latent Load,      !- Zone Load Sizing Method
  HumidityRatioDifference,                !- Zone Latent Cooling Design Supply Air Humidity Ratio Input Method
  ,                                       !- Zone Dehumidification Design Supply Air Humidity Ratio {kgWater/kgDryAir}
  0.005,                                  !- Zone Cooling Design Supply Air Humidity Ratio Difference {kgWater/kgDryAir}
  HumidityRatioDifference,                !- Zone Latent Heating Design Supply Air Humidity Ratio Input Method
  ,                                       !- Zone Humidification Design Supply Air Humidity Ratio {kgWater/kgDryAir}
  0.005,                                  !- Zone Humidification Design Supply Air Humidity Ratio Difference {kgWater/kgDryAir}
  ,                                       !- Zone Humidistat Dehumidification Set Point Schedule Name
  ,                                       !- Zone Humidistat Humidification Set Point Schedule Name
  ,                                       !- Design Zone Air Distribution Effectiveness in Cooling Mode
  ,                                       !- Design Zone Air Distribution Effectiveness in Heating Mode
  ,                                       !- Design Zone Secondary Recirculation Fraction {dimensionless}
  ,                                       !- Design Minimum Zone Ventilation Efficiency {dimensionless}
  Coincident;                             !- Sizing Option

OS:ZoneHVAC:EquipmentList,
  {f5bc2739-42b2-4055-8036-45b557f47fcf}, !- Handle
  Zone HVAC Equipment List 2,             !- Name
  {59ffa764-7656-4d59-8697-c05bda1f6ca3}; !- Thermal Zone

OS:AdditionalProperties,
  {df12772b-8160-4999-8033-01905a0a094e}, !- Handle
  {59ffa764-7656-4d59-8697-c05bda1f6ca3}, !- Object Name
  ObjectType,                             !- Feature Name 1
  String,                                 !- Feature Data Type 1
  attic - vented;                         !- Feature Value 1

OS:Space,
  {98745ef0-abad-434a-8e16-71785f719ac5}, !- Handle
  attic - vented 1,                       !- Name
  ,                                       !- Space Type Name
  ,                                       !- Default Construction Set Name
  ,                                       !- Default Schedule Set Name
  ,                                       !- Direction of Relative North {deg}
  ,                                       !- X Origin {m}
  ,                                       !- Y Origin {m}
  ,                                       !- Z Origin {m}
  ,                                       !- Building Story Name
  {59ffa764-7656-4d59-8697-c05bda1f6ca3}, !- Thermal Zone Name
  ,                                       !- Part of Total Floor Area
  ,                                       !- Design Specification Outdoor Air Object Name
  ,                                       !- Building Unit Name
  356.390921899745;                       !- Volume {m3}

OS:Material,
  {530cc0b0-499b-4e77-ad19-c71cb4773782}, !- Handle
  asphalt or fiberglass shingles,         !- Name
  Rough,                                  !- Roughness
  0.00635,                                !- Thickness {m}
  0.162714,                               !- Conductivity {W/m-K}
  1121.4,                                 !- Density {kg/m3}
  1465.45,                                !- Specific Heat {J/kg-K}
  0.9,                                    !- Thermal Absorptance
  0.85,                                   !- Solar Absorptance