
OS:Version,
  {6a4d2ccd-839c-4147-a04f-3a5bae16807c}, !- Handle
  3.9.0;                                  !- Version Identifier

OS:SimulationControl,
  {51c1b0c2-dfdd-44e9-b28a-f8ef156bd83d}, !- Handle
  ,                                       !- Do Zone Sizing Calculation
  ,                                       !- Do System Sizing Calculation
  ,                                       !- Do Plant Sizing Calculation
  No;                                     !- Run Simulation for Sizing Periods

OS:Timestep,
  {98ae4959-6864-4734-9921-ed8ce6780fbd}, !- Handle
  1;                                      !- Number of Timesteps per Hour

OS:ShadowCalculation,
  {c747fb4d-2566-45e8-9e2d-6787dcfa892b}, !- Handle
  PolygonClipping,                        !- Shading Calculation Method
  ,                                       !- Shading Calculation Update Frequency Method
  20,                                     !- Shading Calculation Update Frequency
  200,                                    !- Maximum Figures in Shadow Overlap Calculations
  ,                                       !- Polygon Clipping Algorithm
  512,                                    !- Pixel Counting Resolution
  ,                                       !- Sky Diffuse Modeling Algorithm
  No,                                     !- Output External Shading Calculation Results
  No,                                     !- Disable Self-Shading Within Shading Zone Groups
  No;                                     !- Disable Self-Shading From Shading Zone Groups to Other Zones

OS:SurfaceConvectionAlgorithm:Outside,
  {b17ded9f-e466-41f4-b797-35129e9026a6}, !- Handle
  DOE-2;                                  !- Algorithm

OS:SurfaceConvectionAlgorithm:Inside,
  {bfc99408-1e70-4085-bab6-6258bcd9364a}, !- Handle
  TARP;                                   !- Algorithm

OS:ZoneCapacitanceMultiplier:ResearchSpecial,
  {d0efc25d-18b4-40d5-8528-a97c3bc5af46}, !- Handle
  7,                                      !- Temperature Capacity Multiplier
  15,                                     !- Humidity Capacity Multiplier
  ;                                       !- Carbon Dioxide Capacity Multiplier

OS:ConvergenceLimits,
  {0d1db31d-a201-43a0-ad70-6f2636be4b20}, !- Handle
  0;                                      !- Minimum System Timestep {minutes}

OS:RunPeriod,
  {03e72f4d-3ef2-40e5-a2a4-6858e8dcbe98}, !- Handle
  Run Period 1,                           !- Name
  1,                                      !- Begin Month
  1,                                      !- Begin Day of Month
  12,                                     !- End Month
  31,                                     !- End Day of Month
  ,                                       !- Use Weather File Holidays and Special Days
  ,                                       !- Use Weather File Daylight Saving Period
  ,                                       !- Apply Weekend Holiday Rule
  ,                                       !- Use Weather File Rain Indicators
  ,                                       !- Use Weather File Snow Indicators
  ;                                       !- Number of Times Runperiod to be Repeated

OS:PerformancePrecisionTradeoffs,
  {e1e1c617-d24f-4cd6-b5be-2d58017d1ac2}, !- Handle
  ,                                       !- Use Coil Direct Solutions
  CarrollMRT;                             !- Zone Radiant Exchange Algorithm

OS:WeatherFile,
  {e16a0a4d-d4fd-4646-89fb-f8f37bb2384d}, !- Handle
  Buffalo Niagara Intl Ap,                !- City
  NY,                                     !- State Province Region
  USA,                                    !- Country
  TMY3,                                   !- Data Source
  725280,                                 !- WMO Number
  42.93,                                  !- Latitude {deg}
  -78.73,                                 !- Longitude {deg}
  -5,                                     !- Time Zone {hr}
  215,                                    !- Elevation {m}
  /Users/nmoore/github/urbanopt-example-geojson-project/example_project/weather/USA_NY_Buffalo-Greater.Buffalo.Intl.AP.725280_TMY3.epw, !- Url
  6B50E0FF,                               !- Checksum
  ,                                       !- Start Date Actual Year
  Sunday;                                 !- Start Day of Week

OS:YearDescription,
  {e2485b40-4479-45b8-b9ba-9300a42d60e7}, !- Handle
  2007,                                   !- Calendar Year
  ,                                       !- Day of Week for Start Day
  ;                                       !- Is Leap Year

OS:Site,
  {81fe6994-6fa6-477c-959a-563b1aac93da}, !- Handle
  Buffalo Niagara Intl Ap_NY,             !- Name
  42.93,                                  !- Latitude {deg}
  -78.73,                                 !- Longitude {deg}
  -5,                                     !- Time Zone {hr}
  215,                                    !- Elevation {m}
  Suburbs,                                !- Terrain
  Yes;                                    !- Keep Site Location Information

OS:RunPeriodControl:DaylightSavingTime,
  {125d97ac-0e82-4dcd-acae-15fc1e8e8d3a}, !- Handle
  Mar 12,                                 !- Start Date
  Nov 5;                                  !- End Date

OS:Site:GroundTemperature:Shallow,
  {c0a34d8d-47fc-44c6-9ddb-0b3d566e8a11}, !- Handle
  4.30207395723828,                       !- January Surface Ground Temperature {C}
  2.29327249652502,                       !- February Surface Ground Temperature {C}
  2.13240047156047,                       !- March Surface Ground Temperature {C}
  3.08567940719286,                       !- April Surface Ground Temperature {C}
  6.91256312497526,                       !- May Surface Ground Temperature {C}
  10.7216195949507,                       !- June Surface Ground Temperature {C}
  14.0238679822574,                       !- July Surface Ground Temperature {C}
  16.1157611184724,                       !- August Surface Ground Temperature {C}
  16.2934789303462,                       !- September Surface Ground Temperature {C}
  14.5920754632847,                       !- October Surface Ground Temperature {C}
  11.374036348653,                        !- November Surface Ground Temperature {C}
  7.68182621661674;                       !- December Surface Ground Temperature {C}

OS:ThermalZone,
  {0b8c8ca1-0150-454b-9965-c209431e1303}, !- Handle
  conditioned space,                      !- Name
  1,                                      !- Multiplier
  ,                                       !- Ceiling Height {m}
  692.06373070848,                        !- Volume {m3}
  ,                                       !- Floor Area {m2}
  ,                                       !- Zone Inside Convection Algorithm
  ,                                       !- Zone Outside Convection Algorithm
  ,                                       !- Zone Conditioning Equipment List Name
  {76be1afa-f7a2-44fa-b970-e845552adf91}, !- Zone Air Inlet Port List
  {5a2566da-0f9a-497d-a3ff-ebf23db0ba2f}, !- Zone Air Exhaust Port List
  {ea175697-481a-4f14-ad7e-33f6f8842d75}, !- Zone Air Node Name
  {c3c80ffa-3c87-48fa-94ca-8e0bb8d25c33}, !- Zone Return Air Port List
  ,                                       !- Primary Daylighting Control Name
  ,                                       !- Fraction of Zone Controlled by Primary Daylighting Control
  ,                                       !- Secondary Daylighting Control Name
  ,                                       !- Fraction of Zone Controlled by Secondary Daylighting Control
  ,                                       !- Illuminance Map Name
  ,                                       !- Group Rendering Name
  {64bd09ed-2849-4362-945d-374fe3a68df2}, !- Thermostat Name
  No;                                     !- Use Ideal Air Loads

OS:Node,
  {3985d3df-360e-4294-bbe3-2fae279fc568}, !- Handle
  Node 1,                                 !- Name
  {ea175697-481a-4f14-ad7e-33f6f8842d75}, !- Inlet Port
  ;                                       !- Outlet Port

OS:Connection,
  {ea175697-481a-4f14-ad7e-33f6f8842d75}, !- Handle
  {0b8c8ca1-0150-454b-9965-c209431e1303}, !- Source Object
  11,                                     !- Outlet Port
  {3985d3df-360e-4294-bbe3-2fae279fc568}, !- Target Object
  2;                                      !- Inlet Port

OS:PortList,
  {76be1afa-f7a2-44fa-b970-e845552adf91}, !- Handle
  {0b8c8ca1-0150-454b-9965-c209431e1303}, !- HVAC Component
  {6ed576a9-029a-4f26-b748-bd0ba5876329}; !- Port 1

OS:PortList,
  {5a2566da-0f9a-497d-a3ff-ebf23db0ba2f}, !- Handle
  {0b8c8ca1-0150-454b-9965-c209431e1303}; !- HVAC Component

OS:PortList,
  {c3c80ffa-3c87-48fa-94ca-8e0bb8d25c33}, !- Handle
  {0b8c8ca1-0150-454b-9965-c209431e1303}, !- HVAC Component
  {dc36c586-206d-428a-9d4c-2c3258b0165f}; !- Port 1

OS:Sizing:Zone,
  {71d24434-9fbe-4015-8d61-b7950e895bef}, !- Handle
  {0b8c8ca1-0150-454b-9965-c209431e1303}, !- Zone or ZoneList Name
  SupplyAirTemperature,                   !- Zone Cooling Design Supply Air Temperature Input Method
  14,                                     !- Zone Cooling Design Supply Air Temperature {C}
  11.11,                                  !- Zone Cooling Design Supply Air Temperature Difference {deltaC}
  SupplyAirTemperature,                   !- Zone Heating Design Supply Air Temperature Input Method
  40,                                     !- Zone Heating Design Supply Air Temperature {C}
  11.11,                                  !- Zone Heating Design Supply Air Temperature Difference {deltaC}
  0.0085,                                 !- Zone Cooling Design Supply Air Humidity Ratio {kg-H2O/kg-air}
  0.008,                                  !- Zone Heating Design Supply Air Humidity Ratio {kg-H2O/kg-air}
  ,                                       !- Zone Heating Sizing Factor
  ,                                       !- Zone Cooling Sizing Factor
  DesignDay,                              !- Cooling Design Air Flow Method
  ,                                       !- Cooling Design Air Flow Rate {m3/s}
  ,                                       !- Cooling Minimum Air Flow per Zone Floor Area {m3/s-m2}
  ,                                       !- Cooling Minimum Air Flow {m3/s}
  ,                                       !- Cooling Minimum Air Flow Fraction
  DesignDay,                              !- Heating Design Air Flow Method
  ,                                       !- Heating Design Air Flow Rate {m3/s}
  ,                                       !- Heating Maximum Air Flow per Zone Floor Area {m3/s-m2}
  ,                                       !- Heating Maximum Air Flow {m3/s}
  ,                                       !- Heating Maximum Air Flow Fraction
  No,                                     !- Account for Dedicated Outdoor Air System
  NeutralSupplyAir,                       !- Dedicated Outdoor Air System Control Strategy
  autosize,                               !- Dedicated Outdoor Air Low Setpoint Temperature for Design {C}
  autosize,                               !- Dedicated Outdoor Air High Setpoint Temperature for Design {C}
  Sensible Load Only No Latent Load,      !- Zone Load Sizing Method
  HumidityRatioDifference,                !- Zone Latent Cooling Design Supply Air Humidity Ratio Input Method
  ,                                       !- Zone Dehumidification Design Supply Air Humidity Ratio {kgWater/kgDryAir}
  0.005,                                  !- Zone Cooling Design Supply Air Humidity Ratio Difference {kgWater/kgDryAir}
  HumidityRatioDifference,                !- Zone Latent Heating Design Supply Air Humidity Ratio Input Method
  ,                                       !- Zone Humidification Design Supply Air Humidity Ratio {kgWater/kgDryAir}
  0.005,                                  !- Zone Humidification Design Supply Air Humidity Ratio Difference {kgWater/kgDryAir}
  ,                                       !- Zone Humidistat Dehumidification Set Point Schedule Name
  ,                                       !- Zone Humidistat Humidification Set Point Schedule Name
  ,                                       !- Design Zone Air Distribution Effectiveness in Cooling Mode
  ,                                       !- Design Zone Air Distribution Effectiveness in Heating Mode
  ,                                       !- Design Zone Secondary Recirculation Fraction {dimensionless}
  ,                                       !- Design Minimum Zone Ventilation Efficiency {dimensionless}
  Coincident;                             !- Sizing Option

OS:ZoneHVAC:EquipmentList,
  {a9760960-7a25-46a1-8a30-ba0c59905a13}, !- Handle
  Zone HVAC Equipment List 1,             !- Name
  {0b8c8ca1-0150-454b-9965-c209431e1303}, !- Thermal Zone
  ,                                       !- Load Distribution Scheme
  {9b65ee9d-5f9c-46bd-85aa-30278df9dfbb}, !- Zone Equipment 1
  1,                                      !- Zone Equipment Cooling Sequence 1
  1,                                      !- Zone Equipment Heating or No-Load Sequence 1
  {fb654900-e465-45e7-9d32-c6165e25ea32}, !- Zone Equipment Sequential Cooling Fraction Schedule Name 1
  {59d47b6c-34b8-47b1-9762-0cde698d866e}; !- Zone Equipment Sequential Heating Fraction Schedule Name 1

OS:AdditionalProperties,
  {08e36f2f-4eac-44ac-a8cb-33bc19833863}, !- Handle
  {0b8c8ca1-0150-454b-9965-c209431e1303}, !- Object Name
  ObjectType,                             !- Feature Name 1
  String,                                 !- Feature Data Type 1
  conditioned space;                      !- Feature Value 1

OS:Space,
  {3b0ed62c-fc89-4016-a2a8-92805a7b4078}, !- Handle
  conditioned space 1,                    !- Name
  ,                                       !- Space Type Name
  ,                                       !- Default Construction Set Name
  ,                                       !- Default Schedule Set Name
  ,                                       !- Direction of Relative North {deg}
  ,                                       !- X Origin {m}
  ,                                       !- Y Origin {m}
  ,                                       !- Z Origin {m}
  ,                                       !- Building Story Name
  {0b8c8ca1-0150-454b-9965-c209431e1303}, !- Thermal Zone Name
  ,                                       !- Part of Total Floor Area
  ,                                       !- Design Specification Outdoor Air Object Name
  ,                                       !- Building Unit Name
  692.06373070848;                        !- Volume {m3}

OS:Schedule:Ruleset,
  {9e5c3713-af38-4368-b379-79b5ba48dfbe}, !- Handle
  heating setpoint,                       !- Name
  {e7c8bb54-67a6-4f7d-82c8-06060e15e505}, !- Schedule Type Limits Name
  {09ebef39-2bd1-42d6-925c-8fd75c6342c8}; !- Default Day Schedule Name

OS:Schedule:Day,
  {09ebef39-2bd1-42d6-925c-8fd75c6342c8}, !- Handle
  heating setpoint default day,           !- Name
  {e7c8bb54-67a6-4f7d-82c8-06060e15e505}, !- Schedule Type Limits Name
  ,                                       !- Interpolate to Timestep
  24,                                     !- Hour 1
  0,                                      !- Minute 1
  0;                                      !- Value Until Time 1

OS:Schedule:Rule,
  {97eb7173-2c83-43f3-a09a-97db09c4ec90}, !- Handle
  heating setpoint allday rule,           !- Name
  {9e5c3713-af38-4368-b379-79b5ba48dfbe}, !- Schedule Ruleset Name
  0,                                      !- Rule Order
  {364a3f89-c637-4b7d-8553-18d23028d066}, !- Day Schedule Name
  Yes,                                    !- Apply Sunday
  Yes,                                    !- Apply Monday
  Yes,                                    !- Apply Tuesday
  Yes,                                    !- Apply Wednesday
  Yes,                                    !- Apply Thursday
  Yes,                                    !- Apply Friday
  Yes,                                    !- Apply Saturday
  DateRange,                              !- Date Specification Type
  1,                                      !- Start Month
  1,                                      !- Start Day
  12,                                     !- End Month
  31;                                     !- End Day

OS:Schedule:Day,
  {364a3f89-c637-4b7d-8553-18d23028d066}, !- Handle
  heating setpoint day,                   !- Name
  {e7c8bb54-67a6-4f7d-82c8-06060e15e505}, !- Schedule Type Limits Name
  ,                                       !- Interpolate to Timestep
  24,                                     !- Hour 1
  0,                                      !- Minute 1
  20;                                     !- Value Until Time 1

OS:Schedule:Ruleset,
  {fd619363-9edb-48c9-9bbe-67a77e735848}, !- Handle
  cooling setpoint,                       !- Name
  {e7c8bb54-67a6-4f7d-82c8-06060e15e505}, !- Schedule Type Limits Name
  {fc6c79b3-6a31-4c27-aecc-143ffd856e2a}; !- Default Day Schedule Name

OS:Schedule:Day,
  {fc6c79b3-6a31-4c27-aecc-143ffd856e2a}, !- Handle
  cooling setpoint default day,           !- Name
  {e7c8bb54-67a6-4f7d-82c8-06060e15e505}, !- Schedule Type Limits Name
  ,                                       !- Interpolate to Timestep
  24,                                     !- Hour 1
  0,                                      !- Minute 1
  0;                                      !- Value Until Time 1

OS:Schedule:Rule,
  {39e2fadb-aba8-4008-8005-765ae5e455dd}, !- Handle
  cooling setpoint allday rule,           !- Name
  {fd619363-9edb-48c9-9bbe-67a77e735848}, !- Schedule Ruleset Name
  0,                                      !- Rule Order
  {d6fcf6bd-96b9-4a21-8a9a-ddef33ee1cb5}, !- Day Schedule Name
  Yes,                                    !- Apply Sunday
  Yes,                                    !- Apply Monday
  Yes,                                    !- Apply Tuesday
  Yes,                                    !- Apply Wednesday
  Yes,                                    !- Apply Thursday
  Yes,                                    !- Apply Friday
  Yes,                                    !- Apply Saturday
  DateRange,                              !- Date Specification Type
  1,                                      !- Start Month
  1,                                      !- Start Day
  12,                                     !- End Month
  31;                                     !- End Day

OS:Schedule:Day,
  {d6fcf6bd-96b9-4a21-8a9a-ddef33ee1cb5}, !- Handle
  cooling setpoint day,                   !- Name
  {e7c8bb54-67a6-4f7d-82c8-06060e15e505}, !- Schedule Type Limits Name
  ,                                       !- Interpolate to Timestep
  24,                                     !- Hour 1
  0,                                      !- Minute 1
  25.5555555555556;                       !- Value Until Time 1

OS:ThermostatSetpoint:DualSetpoint,
  {64bd09ed-2849-4362-945d-374fe3a68df2}, !- Handle
  conditioned space temperature setpoint, !- Name
  {9e5c3713-af38-4368-b379-79b5ba48dfbe}, !- Heating Setpoint Temperature Schedule Name
  {fd619363-9edb-48c9-9bbe-67a77e735848}, !- Cooling Setpoint Temperature Schedule Name
  0;                                      !- Temperature Difference Between Cutout And Setpoint {deltaC}

OS:ScheduleTypeLimits,
  {e7c8bb54-67a6-4f7d-82c8-06060e15e505}, !- Handle
  Temperature,                            !- Name
  ,                                       !- Lower Limit Value
  ,                                       !- Upper Limit Value
  Continuous,                             !- Numeric Type
  Temperature;                            !- Unit Type

OS:Surface,
  {e8b0ff9c-c6e1-464e-a9d3-851bdfd6992e}, !- Handle
  Roof1,                                  !- Name
  RoofCeiling,                            !- Surface Type
  {4986b83b-08bc-4282-8051-f674f86458ab}, !- Construction Name
  {6c18a983-02d7-4ece-a07b-6d7b08dae82b}, !- Space Name
  Outdoors,                               !- Outside Boundary Condition
  ,                                       !- Outside Boundary Condition Object
  SunExposed,                             !- Sun Exposure
  WindExposed,                            !- Wind Exposure
  ,                                       !- View Factor to Ground
  ,                                       !- Number of Vertices
  -26.9347048849634, 58.0557891618865, 2.4384, !- X,Y,Z Vertex 1 {m}
  -26.9347048849634, 46.7895631136661, 8.0715130241102, !- X,Y,Z Vertex 2 {m}
  -14.3386812381136, 46.7895631136661, 8.0715130241102, !- X,Y,Z Vertex 3 {m}
  -14.3386812381136, 58.0557891618865, 2.4384; !- X,Y,Z Vertex 4 {m}

OS:AdditionalProperties,
  {de1da7ef-fad9-453f-8c34-fced598195df}, !- Handle
  {e8b0ff9c-c6e1-464e-a9d3-851bdfd6992e}, !- Object Name
  Length,                                 !- Feature Name 1
  Double,                                 !- Feature Data Type 1
  41.325536899113608,                     !- Feature Value 1
  Width,                                  !- Feature Name 2
  Double,                                 !- Feature Data Type 2
  41.325536899113601,                     !- Feature Value 2
  Azimuth,                                !- Feature Name 3
  Integer,                                !- Feature Data Type 3
  0,                                      !- Feature Value 3
  Tilt,                                   !- Feature Name 4
  Double,                                 !- Feature Data Type 4
  0.5,                                    !- Feature Value 4
  SurfaceType,                            !- Feature Name 5
  String,                                 !- Feature Data Type 5
  Roof;                                   !- Feature Value 5

OS:ThermalZone,
  {67aabe05-6bf6-4a3a-b56d-511c049a78f2}, !- Handle
  attic - vented,                         !- Name
  1,                                      !- Multiplier
  ,                                       !- Ceiling Height {m}
  356.389957095237,                       !- Volume {m3}
  ,                                       !- Floor Area {m2}
  ,                                       !- Zone Inside Convection Algorithm
  ,                                       !- Zone Outside Convection Algorithm
  ,                                       !- Zone Conditioning Equipment List Name
  {fef7abbf-604b-43fe-a0bd-0c085311f304}, !- Zone Air Inlet Port List
  {cdccfb90-a23a-4957-b004-5e8884f5d998}, !- Zone Air Exhaust Port List
  {ff483edd-f433-41c9-a7e6-e58cbff5465f}, !- Zone Air Node Name
  {c82966a7-63d8-41af-95e2-2c09af15dad4}, !- Zone Return Air Port List
  ,                                       !- Primary Daylighting Control Name
  ,                                       !- Fraction of Zone Controlled by Primary Daylighting Control
  ,                                       !- Secondary Daylighting Control Name
  ,                                       !- Fraction of Zone Controlled by Secondary Daylighting Control
  ,                                       !- Illuminance Map Name
  ,                                       !- Group Rendering Name
  ,                                       !- Thermostat Name
  No;                                     !- Use Ideal Air Loads

OS:Node,
  {f361dcb5-c77e-484d-a428-827748b9bcda}, !- Handle
  Node 2,                                 !- Name
  {ff483edd-f433-41c9-a7e6-e58cbff5465f}, !- Inlet Port
  ;                                       !- Outlet Port

OS:Connection,
  {ff483edd-f433-41c9-a7e6-e58cbff5465f}, !- Handle
  {67aabe05-6bf6-4a3a-b56d-511c049a78f2}, !- Source Object
  11,                                     !- Outlet Port
  {f361dcb5-c77e-484d-a428-827748b9bcda}, !- Target Object
  2;                                      !- Inlet Port

OS:PortList,
  {fef7abbf-604b-43fe-a0bd-0c085311f304}, !- Handle
  {67aabe05-6bf6-4a3a-b56d-511c049a78f2}; !- HVAC Component

OS:PortList,
  {cdccfb90-a23a-4957-b004-5e8884f5d998}, !- Handle
  {67aabe05-6bf6-4a3a-b56d-511c049a78f2}; !- HVAC Component

OS:PortList,
  {c82966a7-63d8-41af-95e2-2c09af15dad4}, !- Handle
  {67aabe05-6bf6-4a3a-b56d-511c049a78f2}; !- HVAC Component

OS:Sizing:Zone,
  {46b9b39d-94e9-4747-857a-2e1f99e12b49}, !- Handle
  {67aabe05-6bf6-4a3a-b56d-511c049a78f2}, !- Zone or ZoneList Name
  SupplyAirTemperature,                   !- Zone Cooling Design Supply Air Temperature Input Method
  14,                                     !- Zone Cooling Design Supply Air Temperature {C}
  11.11,                                  !- Zone Cooling Design Supply Air Temperature Difference {deltaC}
  SupplyAirTemperature,                   !- Zone Heating Design Supply Air Temperature Input Method
  40,                                     !- Zone Heating Design Supply Air Temperature {C}
  11.11,                                  !- Zone Heating Design Supply Air Temperature Difference {deltaC}
  0.0085,                                 !- Zone Cooling Design Supply Air Humidity Ratio {kg-H2O/kg-air}
  0.008,                                  !- Zone Heating Design Supply Air Humidity Ratio {kg-H2O/kg-air}
  ,                                       !- Zone Heating Sizing Factor
  ,                                       !- Zone Cooling Sizing Factor
  DesignDay,                              !- Cooling Design Air Flow Method
  ,                                       !- Cooling Design Air Flow Rate {m3/s}
  ,                                       !- Cooling Minimum Air Flow per Zone Floor Area {m3/s-m2}
  ,                                       !- Cooling Minimum Air Flow {m3/s}
  ,                                       !- Cooling Minimum Air Flow Fraction
  DesignDay,                              !- Heating Design Air Flow Method
  ,                                       !- Heating Design Air Flow Rate {m3/s}
  ,                                       !- Heating Maximum Air Flow per Zone Floor Area {m3/s-m2}
  ,                                       !- Heating Maximum Air Flow {m3/s}
  ,                                       !- Heating Maximum Air Flow Fraction
  No,                                     !- Account for Dedicated Outdoor Air System
  NeutralSupplyAir,                       !- Dedicated Outdoor Air System Control Strategy
  autosize,                               !- Dedicated Outdoor Air Low Setpoint Temperature for Design {C}
  autosize,                               !- Dedicated Outdoor Air High Setpoint Temperature for Design {C}
  Sensible Load Only No Latent Load,      !- Zone Load Sizing Method
  HumidityRatioDifference,                !- Zone Latent Cooling Design Supply Air Humidity Ratio Input Method
  ,                                       !- Zone Dehumidification Design Supply Air Humidity Ratio {kgWater/kgDryAir}
  0.005,                                  !- Zone Cooling Design Supply Air Humidity Ratio Difference {kgWater/kgDryAir}
  HumidityRatioDifference,                !- Zone Latent Heating Design Supply Air Humidity Ratio Input Method
  ,                                       !- Zone Humidification Design Supply Air Humidity Ratio {kgWater/kgDryAir}
  0.005,                                  !- Zone Humidification Design Supply Air Humidity Ratio Difference {kgWater/kgDryAir}
  ,                                       !- Zone Humidistat Dehumidification Set Point Schedule Name
  ,                                       !- Zone Humidistat Humidification Set Point Schedule Name
  ,                                       !- Design Zone Air Distribution Effectiveness in Cooling Mode
  ,                                       !- Design Zone Air Distribution Effectiveness in Heating Mode
  ,                                       !- Design Zone Secondary Recirculation Fraction {dimensionless}
  ,                                       !- Design Minimum Zone Ventilation Efficiency {dimensionless}
  Coincident;                             !- Sizing Option

OS:ZoneHVAC:EquipmentList,
  {dd8c9e32-075e-478c-9dd9-7199ce107f40}, !- Handle
  Zone HVAC Equipment List 2,             !- Name
  {67aabe05-6bf6-4a3a-b56d-511c049a78f2}; !- Thermal Zone

OS:AdditionalProperties,
  {eaa8eff4-9b37-496c-994d-0dcac044ed44}, !- Handle
  {67aabe05-6bf6-4a3a-b56d-511c049a78f2}, !- Object Name
  ObjectType,                             !- Feature Name 1
  String,                                 !- Feature Data Type 1
  attic - vented;                         !- Feature Value 1

OS:Space,
  {6c18a983-02d7-4ece-a07b-6d7b08dae82b}, !- Handle
  attic - vented 1,                       !- Name
  ,                                       !- Space Type Name
  ,                                       !- Default Construction Set Name
  ,                                       !- Default Schedule Set Name
  ,                                       !- Direction of Relative North {deg}
  ,                                       !- X Origin {m}
  ,                                       !- Y Origin {m}
  ,                                       !- Z Origin {m}
  ,                                       !- Building Story Name
  {67aabe05-6bf6-4a3a-b56d-511c049a78f2}, !- Thermal Zone Name
  ,                                       !- Part of Total Floor Area
  ,                                       !- Design Specification Outdoor Air Object Name
  ,                                       !- Building Unit Name
  356.389957095237;                       !- Volume {m3}

OS:Material,
  {df2266be-e505-4d9b-8fe4-017c52e86eb6}, !- Handle
  asphalt or fiberglass shingles,         !- Name
  Rough,                                  !- Roughness
  0.00635,                                !- Thickness {m}
  0.162714,                               !- Conductivity {W/m-K}
  1121.4,                                 !- Density {kg/m3}
  1465.45,                                !- Specific Heat {J/kg-K}
  0.9,                                    !- Thermal Absorptance
  0.85,                                   !- Solar Absorptance