
OS:Version,
  {39f87c95-1360-4c19-9087-b91935562988}, !- Handle
  3.10.0;                                 !- Version Identifier

OS:SimulationControl,
  {2dd12dd6-9429-442e-b312-1c638e8648bf}, !- Handle
  ,                                       !- Do Zone Sizing Calculation
  ,                                       !- Do System Sizing Calculation
  ,                                       !- Do Plant Sizing Calculation
  No;                                     !- Run Simulation for Sizing Periods

OS:Timestep,
  {0ae60c7d-0cee-436b-8628-86b511b5d751}, !- Handle
  1;                                      !- Number of Timesteps per Hour

OS:ShadowCalculation,
  {25c4c963-d277-4493-9219-8dbca5602dea}, !- Handle
  PolygonClipping,                        !- Shading Calculation Method
  ,                                       !- Shading Calculation Update Frequency Method
  20,                                     !- Shading Calculation Update Frequency
  200,                                    !- Maximum Figures in Shadow Overlap Calculations
  ,                                       !- Polygon Clipping Algorithm
  512,                                    !- Pixel Counting Resolution
  ,                                       !- Sky Diffuse Modeling Algorithm
  No,                                     !- Output External Shading Calculation Results
  No,                                     !- Disable Self-Shading Within Shading Zone Groups
  No;                                     !- Disable Self-Shading From Shading Zone Groups to Other Zones

OS:SurfaceConvectionAlgorithm:Outside,
  {607c2481-43f3-45e7-b796-5a75980955b7}, !- Handle
  DOE-2;                                  !- Algorithm

OS:SurfaceConvectionAlgorithm:Inside,
  {4a7328bb-60c6-4a14-9e9b-9b4d7a565626}, !- Handle
  TARP;                                   !- Algorithm

OS:ZoneCapacitanceMultiplier:ResearchSpecial,
  {b022ba99-cc1b-442f-86a6-7d61a36c5f4d}, !- Handle
  7,                                      !- Temperature Capacity Multiplier
  15,                                     !- Humidity Capacity Multiplier
  ;                                       !- Carbon Dioxide Capacity Multiplier

OS:ConvergenceLimits,
  {58796e18-88a1-48d5-b818-051cc226af8d}, !- Handle
  0;                                      !- Minimum System Timestep {minutes}

OS:RunPeriod,
  {e547265f-1967-4d32-942e-1f1f1c99f1a0}, !- Handle
  Run Period 1,                           !- Name
  1,                                      !- Begin Month
  1,                                      !- Begin Day of Month
  12,                                     !- End Month
  31,                                     !- End Day of Month
  ,                                       !- Use Weather File Holidays and Special Days
  ,                                       !- Use Weather File Daylight Saving Period
  ,                                       !- Apply Weekend Holiday Rule
  ,                                       !- Use Weather File Rain Indicators
  ,                                       !- Use Weather File Snow Indicators
  ;                                       !- Number of Times Runperiod to be Repeated

OS:PerformancePrecisionTradeoffs,
  {ef7a3598-cad7-49a9-8ff7-b1f4cee90ff2}, !- Handle
  ,                                       !- Use Coil Direct Solutions
  CarrollMRT;                             !- Zone Radiant Exchange Algorithm

OS:WeatherFile,
  {297c014d-3a62-4a2d-aaf7-d4bb0ff8fe16}, !- Handle
  Buffalo Niagara Intl Ap,                !- City
  NY,                                     !- State Province Region
  USA,                                    !- Country
  TMY3,                                   !- Data Source
  725280,                                 !- WMO Number
  42.93,                                  !- Latitude {deg}
  -78.73,                                 !- Longitude {deg}
  -5,                                     !- Time Zone {hr}
  215,                                    !- Elevation {m}
  /Users/nmoore/github/urbanopt-example-geojson-project/example_project/weather/USA_NY_Buffalo-Greater.Buffalo.Intl.AP.725280_TMY3.epw, !- Url
  6B50E0FF,                               !- Checksum
  ,                                       !- Start Date Actual Year
  Sunday;                                 !- Start Day of Week

OS:YearDescription,
  {cbcaf87f-0959-47d6-825d-ad07bb82b022}, !- Handle
  2007,                                   !- Calendar Year
  ,                                       !- Day of Week for Start Day
  ;                                       !- Is Leap Year

OS:Site,
  {f34c4519-6a13-46c7-b8bf-a3fbc8a92d78}, !- Handle
  Buffalo Niagara Intl Ap_NY,             !- Name
  42.93,                                  !- Latitude {deg}
  -78.73,                                 !- Longitude {deg}
  -5,                                     !- Time Zone {hr}
  215,                                    !- Elevation {m}
  Suburbs,                                !- Terrain
  Yes;                                    !- Keep Site Location Information

OS:RunPeriodControl:DaylightSavingTime,
  {28ffd690-3b19-4120-911e-04578aa2a0d5}, !- Handle
  Mar 12,                                 !- Start Date
  Nov 5;                                  !- End Date

OS:Site:GroundTemperature:Shallow,
  {11dc3049-22e2-4f29-af1d-bd73388aafe4}, !- Handle
  4.30207395723828,                       !- January Surface Ground Temperature {C}
  2.29327249652502,                       !- February Surface Ground Temperature {C}
  2.13240047156047,                       !- March Surface Ground Temperature {C}
  3.08567940719286,                       !- April Surface Ground Temperature {C}
  6.91256312497526,                       !- May Surface Ground Temperature {C}
  10.7216195949507,                       !- June Surface Ground Temperature {C}
  14.0238679822574,                       !- July Surface Ground Temperature {C}
  16.1157611184724,                       !- August Surface Ground Temperature {C}
  16.2934789303462,                       !- September Surface Ground Temperature {C}
  14.5920754632847,                       !- October Surface Ground Temperature {C}
  11.374036348653,                        !- November Surface Ground Temperature {C}
  7.68182621661674;                       !- December Surface Ground Temperature {C}

OS:ThermalZone,
  {038d92b6-78d4-4463-b37b-89c230b59278}, !- Handle
  conditioned space,                      !- Name
  1,                                      !- Multiplier
  ,                                       !- Ceiling Height {m}
  692.06373070848,                        !- Volume {m3}
  ,                                       !- Floor Area {m2}
  ,                                       !- Zone Inside Convection Algorithm
  ,                                       !- Zone Outside Convection Algorithm
  ,                                       !- Zone Conditioning Equipment List Name
  {4f14f757-3490-4981-aef3-683017014733}, !- Zone Air Inlet Port List
  {aaa7b75c-96f4-41dd-8f45-3c4e3e57305d}, !- Zone Air Exhaust Port List
  {df42099f-457c-423a-bf24-5a97ec545d28}, !- Zone Air Node Name
  {1cb84284-a987-454d-b65a-f716b704cbdd}, !- Zone Return Air Port List
  ,                                       !- Primary Daylighting Control Name
  ,                                       !- Fraction of Zone Controlled by Primary Daylighting Control
  ,                                       !- Secondary Daylighting Control Name
  ,                                       !- Fraction of Zone Controlled by Secondary Daylighting Control
  ,                                       !- Illuminance Map Name
  ,                                       !- Group Rendering Name
  {d5335538-4e12-4d44-9d1a-5d3576fa7f1e}, !- Thermostat Name
  No;                                     !- Use Ideal Air Loads

OS:Node,
  {ca18b2c8-1532-450f-938c-127af98c16a6}, !- Handle
  Node 1,                                 !- Name
  {df42099f-457c-423a-bf24-5a97ec545d28}, !- Inlet Port
  ;                                       !- Outlet Port

OS:Connection,
  {df42099f-457c-423a-bf24-5a97ec545d28}, !- Handle
  {038d92b6-78d4-4463-b37b-89c230b59278}, !- Source Object
  11,                                     !- Outlet Port
  {ca18b2c8-1532-450f-938c-127af98c16a6}, !- Target Object
  2;                                      !- Inlet Port

OS:PortList,
  {4f14f757-3490-4981-aef3-683017014733}, !- Handle
  {038d92b6-78d4-4463-b37b-89c230b59278}, !- HVAC Component
  {802352f3-8247-4add-95ec-68c5d87d42c1}; !- Port 1

OS:PortList,
  {aaa7b75c-96f4-41dd-8f45-3c4e3e57305d}, !- Handle
  {038d92b6-78d4-4463-b37b-89c230b59278}; !- HVAC Component

OS:PortList,
  {1cb84284-a987-454d-b65a-f716b704cbdd}, !- Handle
  {038d92b6-78d4-4463-b37b-89c230b59278}, !- HVAC Component
  {73f0cae9-87a0-4f5a-91ce-057605839cce}; !- Port 1

OS:Sizing:Zone,
  {f9032b66-6caf-416b-b698-095cb3491d86}, !- Handle
  {038d92b6-78d4-4463-b37b-89c230b59278}, !- Zone or ZoneList Name
  SupplyAirTemperature,                   !- Zone Cooling Design Supply Air Temperature Input Method
  14,                                     !- Zone Cooling Design Supply Air Temperature {C}
  11.11,                                  !- Zone Cooling Design Supply Air Temperature Difference {deltaC}
  SupplyAirTemperature,                   !- Zone Heating Design Supply Air Temperature Input Method
  40,                                     !- Zone Heating Design Supply Air Temperature {C}
  11.11,                                  !- Zone Heating Design Supply Air Temperature Difference {deltaC}
  0.0085,                                 !- Zone Cooling Design Supply Air Humidity Ratio {kg-H2O/kg-air}
  0.008,                                  !- Zone Heating Design Supply Air Humidity Ratio {kg-H2O/kg-air}
  ,                                       !- Zone Heating Sizing Factor
  ,                                       !- Zone Cooling Sizing Factor
  DesignDay,                              !- Cooling Design Air Flow Method
  ,                                       !- Cooling Design Air Flow Rate {m3/s}
  ,                                       !- Cooling Minimum Air Flow per Zone Floor Area {m3/s-m2}
  ,                                       !- Cooling Minimum Air Flow {m3/s}
  ,                                       !- Cooling Minimum Air Flow Fraction
  DesignDay,                              !- Heating Design Air Flow Method
  ,                                       !- Heating Design Air Flow Rate {m3/s}
  ,                                       !- Heating Maximum Air Flow per Zone Floor Area {m3/s-m2}
  ,                                       !- Heating Maximum Air Flow {m3/s}
  ,                                       !- Heating Maximum Air Flow Fraction
  No,                                     !- Account for Dedicated Outdoor Air System
  NeutralSupplyAir,                       !- Dedicated Outdoor Air System Control Strategy
  autosize,                               !- Dedicated Outdoor Air Low Setpoint Temperature for Design {C}
  autosize,                               !- Dedicated Outdoor Air High Setpoint Temperature for Design {C}
  Sensible Load Only No Latent Load,      !- Zone Load Sizing Method
  HumidityRatioDifference,                !- Zone Latent Cooling Design Supply Air Humidity Ratio Input Method
  ,                                       !- Zone Dehumidification Design Supply Air Humidity Ratio {kgWater/kgDryAir}
  0.005,                                  !- Zone Cooling Design Supply Air Humidity Ratio Difference {kgWater/kgDryAir}
  HumidityRatioDifference,                !- Zone Latent Heating Design Supply Air Humidity Ratio Input Method
  ,                                       !- Zone Humidification Design Supply Air Humidity Ratio {kgWater/kgDryAir}
  0.005,                                  !- Zone Humidification Design Supply Air Humidity Ratio Difference {kgWater/kgDryAir}
  ,                                       !- Zone Humidistat Dehumidification Set Point Schedule Name
  ,                                       !- Zone Humidistat Humidification Set Point Schedule Name
  ,                                       !- Design Zone Air Distribution Effectiveness in Cooling Mode
  ,                                       !- Design Zone Air Distribution Effectiveness in Heating Mode
  ,                                       !- Design Zone Secondary Recirculation Fraction {dimensionless}
  ,                                       !- Design Minimum Zone Ventilation Efficiency {dimensionless}
  Coincident;                             !- Sizing Option

OS:ZoneHVAC:EquipmentList,
  {000bb8d8-bed0-4988-bdff-5456d243e088}, !- Handle
  Zone HVAC Equipment List 1,             !- Name
  {038d92b6-78d4-4463-b37b-89c230b59278}, !- Thermal Zone
  ,                                       !- Load Distribution Scheme
  {ec7d2bee-cf25-4e3e-871b-aaacb5cbb8ef}, !- Zone Equipment 1
  1,                                      !- Zone Equipment Cooling Sequence 1
  1,                                      !- Zone Equipment Heating or No-Load Sequence 1
  {c9f93ef6-8fc7-4329-8d70-377a9051ef35}, !- Zone Equipment Sequential Cooling Fraction Schedule Name 1
  {761791ff-b314-42ef-bdbc-e80b8af2d555}; !- Zone Equipment Sequential Heating Fraction Schedule Name 1

OS:AdditionalProperties,
  {5b4e541b-850d-4147-9b90-8570f5599611}, !- Handle
  {038d92b6-78d4-4463-b37b-89c230b59278}, !- Object Name
  ObjectType,                             !- Feature Name 1
  String,                                 !- Feature Data Type 1
  conditioned space;                      !- Feature Value 1

OS:Space,
  {90a84ba9-c8ba-4908-b152-27e2323b7da8}, !- Handle
  conditioned space 1,                    !- Name
  ,                                       !- Space Type Name
  ,                                       !- Default Construction Set Name
  ,                                       !- Default Schedule Set Name
  ,                                       !- Direction of Relative North {deg}
  ,                                       !- X Origin {m}
  ,                                       !- Y Origin {m}
  ,                                       !- Z Origin {m}
  ,                                       !- Building Story Name
  {038d92b6-78d4-4463-b37b-89c230b59278}, !- Thermal Zone Name
  ,                                       !- Part of Total Floor Area
  ,                                       !- Design Specification Outdoor Air Object Name
  ,                                       !- Building Unit Name
  692.06373070848;                        !- Volume {m3}

OS:Schedule:Ruleset,
  {f1157953-5bf3-4e90-8e64-94eb31922d4e}, !- Handle
  heating setpoint,                       !- Name
  {2a81a88c-72e1-49d0-b08a-46577fe09515}, !- Schedule Type Limits Name
  {248326a6-4123-415f-897e-7fd0f0ef4f8e}; !- Default Day Schedule Name

OS:Schedule:Day,
  {248326a6-4123-415f-897e-7fd0f0ef4f8e}, !- Handle
  heating setpoint default day,           !- Name
  {2a81a88c-72e1-49d0-b08a-46577fe09515}, !- Schedule Type Limits Name
  ,                                       !- Interpolate to Timestep
  24,                                     !- Hour 1
  0,                                      !- Minute 1
  0;                                      !- Value Until Time 1

OS:Schedule:Rule,
  {38a924f1-9f32-48ae-af43-fa800d8c2908}, !- Handle
  heating setpoint allday rule,           !- Name
  {f1157953-5bf3-4e90-8e64-94eb31922d4e}, !- Schedule Ruleset Name
  0,                                      !- Rule Order
  {9ab800bc-148d-417f-b839-5461bae6f41e}, !- Day Schedule Name
  Yes,                                    !- Apply Sunday
  Yes,                                    !- Apply Monday
  Yes,                                    !- Apply Tuesday
  Yes,                                    !- Apply Wednesday
  Yes,                                    !- Apply Thursday
  Yes,                                    !- Apply Friday
  Yes,                                    !- Apply Saturday
  DateRange,                              !- Date Specification Type
  1,                                      !- Start Month
  1,                                      !- Start Day
  12,                                     !- End Month
  31;                                     !- End Day

OS:Schedule:Day,
  {9ab800bc-148d-417f-b839-5461bae6f41e}, !- Handle
  heating setpoint day,                   !- Name
  {2a81a88c-72e1-49d0-b08a-46577fe09515}, !- Schedule Type Limits Name
  ,                                       !- Interpolate to Timestep
  24,                                     !- Hour 1
  0,                                      !- Minute 1
  20;                                     !- Value Until Time 1

OS:Schedule:Ruleset,
  {7728f982-ad2f-4da9-8619-a55311e0b62c}, !- Handle
  cooling setpoint,                       !- Name
  {2a81a88c-72e1-49d0-b08a-46577fe09515}, !- Schedule Type Limits Name
  {26696dba-a540-4aa1-b0cd-be274b69e8c1}; !- Default Day Schedule Name

OS:Schedule:Day,
  {26696dba-a540-4aa1-b0cd-be274b69e8c1}, !- Handle
  cooling setpoint default day,           !- Name
  {2a81a88c-72e1-49d0-b08a-46577fe09515}, !- Schedule Type Limits Name
  ,                                       !- Interpolate to Timestep
  24,                                     !- Hour 1
  0,                                      !- Minute 1
  0;                                      !- Value Until Time 1

OS:Schedule:Rule,
  {df596e76-9c39-4df5-8fd6-9e14d66eeacf}, !- Handle
  cooling setpoint allday rule,           !- Name
  {7728f982-ad2f-4da9-8619-a55311e0b62c}, !- Schedule Ruleset Name
  0,                                      !- Rule Order
  {e6abc56e-d8c3-4d5b-9483-c01c7edc392e}, !- Day Schedule Name
  Yes,                                    !- Apply Sunday
  Yes,                                    !- Apply Monday
  Yes,                                    !- Apply Tuesday
  Yes,                                    !- Apply Wednesday
  Yes,                                    !- Apply Thursday
  Yes,                                    !- Apply Friday
  Yes,                                    !- Apply Saturday
  DateRange,                              !- Date Specification Type
  1,                                      !- Start Month
  1,                                      !- Start Day
  12,                                     !- End Month
  31;                                     !- End Day

OS:Schedule:Day,
  {e6abc56e-d8c3-4d5b-9483-c01c7edc392e}, !- Handle
  cooling setpoint day,                   !- Name
  {2a81a88c-72e1-49d0-b08a-46577fe09515}, !- Schedule Type Limits Name
  ,                                       !- Interpolate to Timestep
  24,                                     !- Hour 1
  0,                                      !- Minute 1
  25.5555555555556;                       !- Value Until Time 1

OS:ThermostatSetpoint:DualSetpoint,
  {d5335538-4e12-4d44-9d1a-5d3576fa7f1e}, !- Handle
  conditioned space temperature setpoint, !- Name
  {f1157953-5bf3-4e90-8e64-94eb31922d4e}, !- Heating Setpoint Temperature Schedule Name
  {7728f982-ad2f-4da9-8619-a55311e0b62c}, !- Cooling Setpoint Temperature Schedule Name
  0;                                      !- Temperature Difference Between Cutout And Setpoint {deltaC}

OS:ScheduleTypeLimits,
  {2a81a88c-72e1-49d0-b08a-46577fe09515}, !- Handle
  Temperature,                            !- Name
  ,                                       !- Lower Limit Value
  ,                                       !- Upper Limit Value
  Continuous,                             !- Numeric Type
  Temperature;                            !- Unit Type

OS:Surface,
  {70af1258-1713-44a1-8928-b156250e6bb5}, !- Handle
  Roof1,                                  !- Name
  RoofCeiling,                            !- Surface Type
  {ac1e2ab5-0330-44b8-aab1-1a5d5925382a}, !- Construction Name
  {307eedd3-baf2-41db-8b5e-37ed12780ddf}, !- Space Name
  Outdoors,                               !- Outside Boundary Condition
  ,                                       !- Outside Boundary Condition Object
  SunExposed,                             !- Sun Exposure
  WindExposed,                            !- Wind Exposure
  ,                                       !- View Factor to Ground
  ,                                       !- Number of Vertices
  -26.9347048849634, 58.0557891618865, 2.4384, !- X,Y,Z Vertex 1 {m}
  -26.9347048849634, 46.7895631136661, 8.0715130241102, !- X,Y,Z Vertex 2 {m}
  -14.3386812381136, 46.7895631136661, 8.0715130241102, !- X,Y,Z Vertex 3 {m}
  -14.3386812381136, 58.0557891618865, 2.4384; !- X,Y,Z Vertex 4 {m}

OS:AdditionalProperties,
  {1c227fa8-2263-49c4-b9b4-0f73ab76f4c1}, !- Handle
  {70af1258-1713-44a1-8928-b156250e6bb5}, !- Object Name
  Length,                                 !- Feature Name 1
  Double,                                 !- Feature Data Type 1
  41.325536899113608,                     !- Feature Value 1
  Width,                                  !- Feature Name 2
  Double,                                 !- Feature Data Type 2
  41.325536899113601,                     !- Feature Value 2
  Azimuth,                                !- Feature Name 3
  Integer,                                !- Feature Data Type 3
  0,                                      !- Feature Value 3
  Tilt,                                   !- Feature Name 4
  Double,                                 !- Feature Data Type 4
  0.5,                                    !- Feature Value 4
  SurfaceType,                            !- Feature Name 5
  String,                                 !- Feature Data Type 5
  Roof;                                   !- Feature Value 5

OS:ThermalZone,
  {c75c24a2-51f1-407b-97ac-e2cd334a0574}, !- Handle
  attic - vented,                         !- Name
  1,                                      !- Multiplier
  ,                                       !- Ceiling Height {m}
  356.390921899745,                       !- Volume {m3}
  ,                                       !- Floor Area {m2}
  ,                                       !- Zone Inside Convection Algorithm
  ,                                       !- Zone Outside Convection Algorithm
  ,                                       !- Zone Conditioning Equipment List Name
  {f060650d-96f9-44a0-90c9-d2e983b30a84}, !- Zone Air Inlet Port List
  {6b313b8d-cc3d-485c-aa03-eaeb883d64b8}, !- Zone Air Exhaust Port List
  {bfee25b4-e920-4e90-8512-c8a68ef2d1c8}, !- Zone Air Node Name
  {6c9f86b4-55b1-4356-906a-787ce4e70761}, !- Zone Return Air Port List
  ,                                       !- Primary Daylighting Control Name
  ,                                       !- Fraction of Zone Controlled by Primary Daylighting Control
  ,                                       !- Secondary Daylighting Control Name
  ,                                       !- Fraction of Zone Controlled by Secondary Daylighting Control
  ,                                       !- Illuminance Map Name
  ,                                       !- Group Rendering Name
  ,                                       !- Thermostat Name
  No;                                     !- Use Ideal Air Loads

OS:Node,
  {693bbe24-1631-4d56-9aa0-4bc0b9e48f7c}, !- Handle
  Node 2,                                 !- Name
  {bfee25b4-e920-4e90-8512-c8a68ef2d1c8}, !- Inlet Port
  ;                                       !- Outlet Port

OS:Connection,
  {bfee25b4-e920-4e90-8512-c8a68ef2d1c8}, !- Handle
  {c75c24a2-51f1-407b-97ac-e2cd334a0574}, !- Source Object
  11,                                     !- Outlet Port
  {693bbe24-1631-4d56-9aa0-4bc0b9e48f7c}, !- Target Object
  2;                                      !- Inlet Port

OS:PortList,
  {f060650d-96f9-44a0-90c9-d2e983b30a84}, !- Handle
  {c75c24a2-51f1-407b-97ac-e2cd334a0574}; !- HVAC Component

OS:PortList,
  {6b313b8d-cc3d-485c-aa03-eaeb883d64b8}, !- Handle
  {c75c24a2-51f1-407b-97ac-e2cd334a0574}; !- HVAC Component

OS:PortList,
  {6c9f86b4-55b1-4356-906a-787ce4e70761}, !- Handle
  {c75c24a2-51f1-407b-97ac-e2cd334a0574}; !- HVAC Component

OS:Sizing:Zone,
  {912f27dc-4af3-4626-95f9-1d96a685dba5}, !- Handle
  {c75c24a2-51f1-407b-97ac-e2cd334a0574}, !- Zone or ZoneList Name
  SupplyAirTemperature,                   !- Zone Cooling Design Supply Air Temperature Input Method
  14,                                     !- Zone Cooling Design Supply Air Temperature {C}
  11.11,                                  !- Zone Cooling Design Supply Air Temperature Difference {deltaC}
  SupplyAirTemperature,                   !- Zone Heating Design Supply Air Temperature Input Method
  40,                                     !- Zone Heating Design Supply Air Temperature {C}
  11.11,                                  !- Zone Heating Design Supply Air Temperature Difference {deltaC}
  0.0085,                                 !- Zone Cooling Design Supply Air Humidity Ratio {kg-H2O/kg-air}
  0.008,                                  !- Zone Heating Design Supply Air Humidity Ratio {kg-H2O/kg-air}
  ,                                       !- Zone Heating Sizing Factor
  ,                                       !- Zone Cooling Sizing Factor
  DesignDay,                              !- Cooling Design Air Flow Method
  ,                                       !- Cooling Design Air Flow Rate {m3/s}
  ,                                       !- Cooling Minimum Air Flow per Zone Floor Area {m3/s-m2}
  ,                                       !- Cooling Minimum Air Flow {m3/s}
  ,                                       !- Cooling Minimum Air Flow Fraction
  DesignDay,                              !- Heating Design Air Flow Method
  ,                                       !- Heating Design Air Flow Rate {m3/s}
  ,                                       !- Heating Maximum Air Flow per Zone Floor Area {m3/s-m2}
  ,                                       !- Heating Maximum Air Flow {m3/s}
  ,                                       !- Heating Maximum Air Flow Fraction
  No,                                     !- Account for Dedicated Outdoor Air System
  NeutralSupplyAir,                       !- Dedicated Outdoor Air System Control Strategy
  autosize,                               !- Dedicated Outdoor Air Low Setpoint Temperature for Design {C}
  autosize,                               !- Dedicated Outdoor Air High Setpoint Temperature for Design {C}
  Sensible Load Only No Latent Load,      !- Zone Load Sizing Method
  HumidityRatioDifference,                !- Zone Latent Cooling Design Supply Air Humidity Ratio Input Method
  ,                                       !- Zone Dehumidification Design Supply Air Humidity Ratio {kgWater/kgDryAir}
  0.005,                                  !- Zone Cooling Design Supply Air Humidity Ratio Difference {kgWater/kgDryAir}
  HumidityRatioDifference,                !- Zone Latent Heating Design Supply Air Humidity Ratio Input Method
  ,                                       !- Zone Humidification Design Supply Air Humidity Ratio {kgWater/kgDryAir}
  0.005,                                  !- Zone Humidification Design Supply Air Humidity Ratio Difference {kgWater/kgDryAir}
  ,                                       !- Zone Humidistat Dehumidification Set Point Schedule Name
  ,                                       !- Zone Humidistat Humidification Set Point Schedule Name
  ,                                       !- Design Zone Air Distribution Effectiveness in Cooling Mode
  ,                                       !- Design Zone Air Distribution Effectiveness in Heating Mode
  ,                                       !- Design Zone Secondary Recirculation Fraction {dimensionless}
  ,                                       !- Design Minimum Zone Ventilation Efficiency {dimensionless}
  Coincident;                             !- Sizing Option

OS:ZoneHVAC:EquipmentList,
  {27992548-ac92-4fba-826e-e45a6781322b}, !- Handle
  Zone HVAC Equipment List 2,             !- Name
  {c75c24a2-51f1-407b-97ac-e2cd334a0574}; !- Thermal Zone

OS:AdditionalProperties,
  {49f914dd-7d16-4b0d-a734-20d3e46cef17}, !- Handle
  {c75c24a2-51f1-407b-97ac-e2cd334a0574}, !- Object Name
  ObjectType,                             !- Feature Name 1
  String,                                 !- Feature Data Type 1
  attic - vented;                         !- Feature Value 1

OS:Space,
  {307eedd3-baf2-41db-8b5e-37ed12780ddf}, !- Handle
  attic - vented 1,                       !- Name
  ,                                       !- Space Type Name
  ,                                       !- Default Construction Set Name
  ,                                       !- Default Schedule Set Name
  ,                                       !- Direction of Relative North {deg}
  ,                                       !- X Origin {m}
  ,                                       !- Y Origin {m}
  ,                                       !- Z Origin {m}
  ,                                       !- Building Story Name
  {c75c24a2-51f1-407b-97ac-e2cd334a0574}, !- Thermal Zone Name
  ,                                       !- Part of Total Floor Area
  ,                                       !- Design Specification Outdoor Air Object Name
  ,                                       !- Building Unit Name
  356.390921899745;                       !- Volume {m3}

OS:Material,
  {e219bf7f-d00e-4faf-bb29-e70620a5c675}, !- Handle
  asphalt or fiberglass shingles,         !- Name
  Rough,                                  !- Roughness
  0.00635,                                !- Thickness {m}
  0.162714,                               !- Conductivity {W/m-K}
  1121.4,                                 !- Density {kg/m3}
  1465.45,                                !- Specific Heat {J/kg-K}
  0.9,                                    !- Thermal Absorptance
  0.85,                                   !- Solar Absorptance