
OS:Version,
  {0a2c2d35-71eb-4399-afc5-b970ad312388}, !- Handle
  3.9.0;                                  !- Version Identifier

OS:SimulationControl,
  {8e4d6d1b-f826-43fe-8cda-0d50cf3e1193}, !- Handle
  ,                                       !- Do Zone Sizing Calculation
  ,                                       !- Do System Sizing Calculation
  ,                                       !- Do Plant Sizing Calculation
  No;                                     !- Run Simulation for Sizing Periods

OS:Timestep,
  {4ab69566-8b39-434f-ad79-8e762a17f456}, !- Handle
  1;                                      !- Number of Timesteps per Hour

OS:ShadowCalculation,
  {e610dc33-d578-45b7-b0fc-0ed1526ae5dc}, !- Handle
  PolygonClipping,                        !- Shading Calculation Method
  ,                                       !- Shading Calculation Update Frequency Method
  20,                                     !- Shading Calculation Update Frequency
  200,                                    !- Maximum Figures in Shadow Overlap Calculations
  ,                                       !- Polygon Clipping Algorithm
  512,                                    !- Pixel Counting Resolution
  ,                                       !- Sky Diffuse Modeling Algorithm
  No,                                     !- Output External Shading Calculation Results
  No,                                     !- Disable Self-Shading Within Shading Zone Groups
  No;                                     !- Disable Self-Shading From Shading Zone Groups to Other Zones

OS:SurfaceConvectionAlgorithm:Outside,
  {d7b67d35-3677-4004-83d1-e2c77ee498c0}, !- Handle
  DOE-2;                                  !- Algorithm

OS:SurfaceConvectionAlgorithm:Inside,
  {2ead0c35-8e95-4fae-b34b-2c5da0bf0e3a}, !- Handle
  TARP;                                   !- Algorithm

OS:ZoneCapacitanceMultiplier:ResearchSpecial,
  {247b6d40-3e9c-4fa6-ac04-dc1c14858450}, !- Handle
  7,                                      !- Temperature Capacity Multiplier
  15,                                     !- Humidity Capacity Multiplier
  ;                                       !- Carbon Dioxide Capacity Multiplier

OS:ConvergenceLimits,
  {8768227f-e3f1-4e0f-8c26-ebbb522f161a}, !- Handle
  0;                                      !- Minimum System Timestep {minutes}

OS:RunPeriod,
  {8222e8e4-62de-4aec-8f2b-9cba3ebb0679}, !- Handle
  Run Period 1,                           !- Name
  1,                                      !- Begin Month
  1,                                      !- Begin Day of Month
  12,                                     !- End Month
  31,                                     !- End Day of Month
  ,                                       !- Use Weather File Holidays and Special Days
  ,                                       !- Use Weather File Daylight Saving Period
  ,                                       !- Apply Weekend Holiday Rule
  ,                                       !- Use Weather File Rain Indicators
  ,                                       !- Use Weather File Snow Indicators
  ;                                       !- Number of Times Runperiod to be Repeated

OS:PerformancePrecisionTradeoffs,
  {61da42bd-d817-4127-ba8b-011f247fe3e7}, !- Handle
  ,                                       !- Use Coil Direct Solutions
  CarrollMRT;                             !- Zone Radiant Exchange Algorithm

OS:WeatherFile,
  {f2f8721b-599b-42d3-a65d-24339c75c1f0}, !- Handle
  Buffalo Niagara Intl Ap,                !- City
  NY,                                     !- State Province Region
  USA,                                    !- Country
  TMY3,                                   !- Data Source
  725280,                                 !- WMO Number
  42.93,                                  !- Latitude {deg}
  -78.73,                                 !- Longitude {deg}
  -5,                                     !- Time Zone {hr}
  215,                                    !- Elevation {m}
  /Users/nmoore/github/urbanopt-example-geojson-project/example_project/weather/USA_NY_Buffalo-Greater.Buffalo.Intl.AP.725280_TMY3.epw, !- Url
  6B50E0FF,                               !- Checksum
  ,                                       !- Start Date Actual Year
  Sunday;                                 !- Start Day of Week

OS:YearDescription,
  {066c6a2f-a49c-4d7a-ac92-b2f800150e1a}, !- Handle
  2007,                                   !- Calendar Year
  ,                                       !- Day of Week for Start Day
  ;                                       !- Is Leap Year

OS:Site,
  {f4e6a7dd-88f6-427d-bcf2-168eca6fa294}, !- Handle
  Buffalo Niagara Intl Ap_NY,             !- Name
  42.93,                                  !- Latitude {deg}
  -78.73,                                 !- Longitude {deg}
  -5,                                     !- Time Zone {hr}
  215,                                    !- Elevation {m}
  Suburbs,                                !- Terrain
  Yes;                                    !- Keep Site Location Information

OS:RunPeriodControl:DaylightSavingTime,
  {f093a9dd-75dd-48be-8bf8-20900f7090ce}, !- Handle
  Mar 12,                                 !- Start Date
  Nov 5;                                  !- End Date

OS:Site:GroundTemperature:Shallow,
  {2dd2527b-43aa-4424-ae25-212e28145557}, !- Handle
  4.30207395723828,                       !- January Surface Ground Temperature {C}
  2.29327249652502,                       !- February Surface Ground Temperature {C}
  2.13240047156047,                       !- March Surface Ground Temperature {C}
  3.08567940719286,                       !- April Surface Ground Temperature {C}
  6.91256312497526,                       !- May Surface Ground Temperature {C}
  10.7216195949507,                       !- June Surface Ground Temperature {C}
  14.0238679822574,                       !- July Surface Ground Temperature {C}
  16.1157611184724,                       !- August Surface Ground Temperature {C}
  16.2934789303462,                       !- September Surface Ground Temperature {C}
  14.5920754632847,                       !- October Surface Ground Temperature {C}
  11.374036348653,                        !- November Surface Ground Temperature {C}
  7.68182621661674;                       !- December Surface Ground Temperature {C}

OS:ThermalZone,
  {95f791c7-efb6-43dd-b62e-cc7ac3767746}, !- Handle
  conditioned space,                      !- Name
  1,                                      !- Multiplier
  ,                                       !- Ceiling Height {m}
  692.06373070848,                        !- Volume {m3}
  ,                                       !- Floor Area {m2}
  ,                                       !- Zone Inside Convection Algorithm
  ,                                       !- Zone Outside Convection Algorithm
  ,                                       !- Zone Conditioning Equipment List Name
  {9608496e-86b9-4576-92e2-51d401c5bde9}, !- Zone Air Inlet Port List
  {337e3f88-abdf-486b-af23-a4000e4e6b29}, !- Zone Air Exhaust Port List
  {a5d13597-6989-4189-a28d-3e6d01815975}, !- Zone Air Node Name
  {4e65e019-4a9c-4233-bd52-8be0cda41d98}, !- Zone Return Air Port List
  ,                                       !- Primary Daylighting Control Name
  ,                                       !- Fraction of Zone Controlled by Primary Daylighting Control
  ,                                       !- Secondary Daylighting Control Name
  ,                                       !- Fraction of Zone Controlled by Secondary Daylighting Control
  ,                                       !- Illuminance Map Name
  ,                                       !- Group Rendering Name
  {05aa04d4-c131-45c5-af48-6d935264c3aa}, !- Thermostat Name
  No;                                     !- Use Ideal Air Loads

OS:Node,
  {ba9c50af-fa9e-41e1-9127-bb62f8184e62}, !- Handle
  Node 1,                                 !- Name
  {a5d13597-6989-4189-a28d-3e6d01815975}, !- Inlet Port
  ;                                       !- Outlet Port

OS:Connection,
  {a5d13597-6989-4189-a28d-3e6d01815975}, !- Handle
  {95f791c7-efb6-43dd-b62e-cc7ac3767746}, !- Source Object
  11,                                     !- Outlet Port
  {ba9c50af-fa9e-41e1-9127-bb62f8184e62}, !- Target Object
  2;                                      !- Inlet Port

OS:PortList,
  {9608496e-86b9-4576-92e2-51d401c5bde9}, !- Handle
  {95f791c7-efb6-43dd-b62e-cc7ac3767746}, !- HVAC Component
  {a5e57818-79e2-420d-a6df-0664371d783e}; !- Port 1

OS:PortList,
  {337e3f88-abdf-486b-af23-a4000e4e6b29}, !- Handle
  {95f791c7-efb6-43dd-b62e-cc7ac3767746}; !- HVAC Component

OS:PortList,
  {4e65e019-4a9c-4233-bd52-8be0cda41d98}, !- Handle
  {95f791c7-efb6-43dd-b62e-cc7ac3767746}, !- HVAC Component
  {e3c2e326-6f76-4dac-948e-667a66219cb1}; !- Port 1

OS:Sizing:Zone,
  {9b31a653-edce-4e9a-bd02-73cc22162a71}, !- Handle
  {95f791c7-efb6-43dd-b62e-cc7ac3767746}, !- Zone or ZoneList Name
  SupplyAirTemperature,                   !- Zone Cooling Design Supply Air Temperature Input Method
  14,                                     !- Zone Cooling Design Supply Air Temperature {C}
  11.11,                                  !- Zone Cooling Design Supply Air Temperature Difference {deltaC}
  SupplyAirTemperature,                   !- Zone Heating Design Supply Air Temperature Input Method
  40,                                     !- Zone Heating Design Supply Air Temperature {C}
  11.11,                                  !- Zone Heating Design Supply Air Temperature Difference {deltaC}
  0.0085,                                 !- Zone Cooling Design Supply Air Humidity Ratio {kg-H2O/kg-air}
  0.008,                                  !- Zone Heating Design Supply Air Humidity Ratio {kg-H2O/kg-air}
  ,                                       !- Zone Heating Sizing Factor
  ,                                       !- Zone Cooling Sizing Factor
  DesignDay,                              !- Cooling Design Air Flow Method
  ,                                       !- Cooling Design Air Flow Rate {m3/s}
  ,                                       !- Cooling Minimum Air Flow per Zone Floor Area {m3/s-m2}
  ,                                       !- Cooling Minimum Air Flow {m3/s}
  ,                                       !- Cooling Minimum Air Flow Fraction
  DesignDay,                              !- Heating Design Air Flow Method
  ,                                       !- Heating Design Air Flow Rate {m3/s}
  ,                                       !- Heating Maximum Air Flow per Zone Floor Area {m3/s-m2}
  ,                                       !- Heating Maximum Air Flow {m3/s}
  ,                                       !- Heating Maximum Air Flow Fraction
  No,                                     !- Account for Dedicated Outdoor Air System
  NeutralSupplyAir,                       !- Dedicated Outdoor Air System Control Strategy
  autosize,                               !- Dedicated Outdoor Air Low Setpoint Temperature for Design {C}
  autosize,                               !- Dedicated Outdoor Air High Setpoint Temperature for Design {C}
  Sensible Load Only No Latent Load,      !- Zone Load Sizing Method
  HumidityRatioDifference,                !- Zone Latent Cooling Design Supply Air Humidity Ratio Input Method
  ,                                       !- Zone Dehumidification Design Supply Air Humidity Ratio {kgWater/kgDryAir}
  0.005,                                  !- Zone Cooling Design Supply Air Humidity Ratio Difference {kgWater/kgDryAir}
  HumidityRatioDifference,                !- Zone Latent Heating Design Supply Air Humidity Ratio Input Method
  ,                                       !- Zone Humidification Design Supply Air Humidity Ratio {kgWater/kgDryAir}
  0.005,                                  !- Zone Humidification Design Supply Air Humidity Ratio Difference {kgWater/kgDryAir}
  ,                                       !- Zone Humidistat Dehumidification Set Point Schedule Name
  ,                                       !- Zone Humidistat Humidification Set Point Schedule Name
  ,                                       !- Design Zone Air Distribution Effectiveness in Cooling Mode
  ,                                       !- Design Zone Air Distribution Effectiveness in Heating Mode
  ,                                       !- Design Zone Secondary Recirculation Fraction {dimensionless}
  ,                                       !- Design Minimum Zone Ventilation Efficiency {dimensionless}
  Coincident;                             !- Sizing Option

OS:ZoneHVAC:EquipmentList,
  {3efa924d-04fc-4c5c-9be7-1fade65f539e}, !- Handle
  Zone HVAC Equipment List 1,             !- Name
  {95f791c7-efb6-43dd-b62e-cc7ac3767746}, !- Thermal Zone
  ,                                       !- Load Distribution Scheme
  {c425d83b-71b5-47c2-8e22-4824144d33a4}, !- Zone Equipment 1
  1,                                      !- Zone Equipment Cooling Sequence 1
  1,                                      !- Zone Equipment Heating or No-Load Sequence 1
  {2c1b2508-2e25-4c18-b277-3bf57e0ea72b}, !- Zone Equipment Sequential Cooling Fraction Schedule Name 1
  {4a23e470-30d3-4546-bc36-3942649c52c7}; !- Zone Equipment Sequential Heating Fraction Schedule Name 1

OS:AdditionalProperties,
  {e0539873-63c1-4238-97b8-6517c0e701b2}, !- Handle
  {95f791c7-efb6-43dd-b62e-cc7ac3767746}, !- Object Name
  ObjectType,                             !- Feature Name 1
  String,                                 !- Feature Data Type 1
  conditioned space;                      !- Feature Value 1

OS:Space,
  {da496609-17a7-4da2-8f1b-63cea6b97a31}, !- Handle
  conditioned space 1,                    !- Name
  ,                                       !- Space Type Name
  ,                                       !- Default Construction Set Name
  ,                                       !- Default Schedule Set Name
  ,                                       !- Direction of Relative North {deg}
  ,                                       !- X Origin {m}
  ,                                       !- Y Origin {m}
  ,                                       !- Z Origin {m}
  ,                                       !- Building Story Name
  {95f791c7-efb6-43dd-b62e-cc7ac3767746}, !- Thermal Zone Name
  ,                                       !- Part of Total Floor Area
  ,                                       !- Design Specification Outdoor Air Object Name
  ,                                       !- Building Unit Name
  692.06373070848;                        !- Volume {m3}

OS:Schedule:Ruleset,
  {07daa6ae-9002-42fe-b8b4-e131e477b596}, !- Handle
  heating setpoint,                       !- Name
  {5da8ea38-9681-4e54-8ebc-23d4eef405c1}, !- Schedule Type Limits Name
  {7122ce37-bd2a-4337-a96e-3deb5ca7a506}; !- Default Day Schedule Name

OS:Schedule:Day,
  {7122ce37-bd2a-4337-a96e-3deb5ca7a506}, !- Handle
  heating setpoint default day,           !- Name
  {5da8ea38-9681-4e54-8ebc-23d4eef405c1}, !- Schedule Type Limits Name
  ,                                       !- Interpolate to Timestep
  24,                                     !- Hour 1
  0,                                      !- Minute 1
  0;                                      !- Value Until Time 1

OS:Schedule:Rule,
  {0e34207d-3159-4aa7-9073-ff58f07b28ac}, !- Handle
  heating setpoint allday rule,           !- Name
  {07daa6ae-9002-42fe-b8b4-e131e477b596}, !- Schedule Ruleset Name
  0,                                      !- Rule Order
  {eb2fba33-3035-4190-99e3-1470de443cec}, !- Day Schedule Name
  Yes,                                    !- Apply Sunday
  Yes,                                    !- Apply Monday
  Yes,                                    !- Apply Tuesday
  Yes,                                    !- Apply Wednesday
  Yes,                                    !- Apply Thursday
  Yes,                                    !- Apply Friday
  Yes,                                    !- Apply Saturday
  DateRange,                              !- Date Specification Type
  1,                                      !- Start Month
  1,                                      !- Start Day
  12,                                     !- End Month
  31;                                     !- End Day

OS:Schedule:Day,
  {eb2fba33-3035-4190-99e3-1470de443cec}, !- Handle
  heating setpoint day,                   !- Name
  {5da8ea38-9681-4e54-8ebc-23d4eef405c1}, !- Schedule Type Limits Name
  ,                                       !- Interpolate to Timestep
  24,                                     !- Hour 1
  0,                                      !- Minute 1
  20;                                     !- Value Until Time 1

OS:Schedule:Ruleset,
  {595825b8-9f55-4211-a9ce-7534d4ee769c}, !- Handle
  cooling setpoint,                       !- Name
  {5da8ea38-9681-4e54-8ebc-23d4eef405c1}, !- Schedule Type Limits Name
  {0b7d6e54-b20e-4c71-b991-2f56759238d4}; !- Default Day Schedule Name

OS:Schedule:Day,
  {0b7d6e54-b20e-4c71-b991-2f56759238d4}, !- Handle
  cooling setpoint default day,           !- Name
  {5da8ea38-9681-4e54-8ebc-23d4eef405c1}, !- Schedule Type Limits Name
  ,                                       !- Interpolate to Timestep
  24,                                     !- Hour 1
  0,                                      !- Minute 1
  0;                                      !- Value Until Time 1

OS:Schedule:Rule,
  {c6504138-954a-4aae-99b5-4f4e62d7cd61}, !- Handle
  cooling setpoint allday rule,           !- Name
  {595825b8-9f55-4211-a9ce-7534d4ee769c}, !- Schedule Ruleset Name
  0,                                      !- Rule Order
  {377b7a38-75e1-494c-bfa8-a5772dd56d68}, !- Day Schedule Name
  Yes,                                    !- Apply Sunday
  Yes,                                    !- Apply Monday
  Yes,                                    !- Apply Tuesday
  Yes,                                    !- Apply Wednesday
  Yes,                                    !- Apply Thursday
  Yes,                                    !- Apply Friday
  Yes,                                    !- Apply Saturday
  DateRange,                              !- Date Specification Type
  1,                                      !- Start Month
  1,                                      !- Start Day
  12,                                     !- End Month
  31;                                     !- End Day

OS:Schedule:Day,
  {377b7a38-75e1-494c-bfa8-a5772dd56d68}, !- Handle
  cooling setpoint day,                   !- Name
  {5da8ea38-9681-4e54-8ebc-23d4eef405c1}, !- Schedule Type Limits Name
  ,                                       !- Interpolate to Timestep
  24,                                     !- Hour 1
  0,                                      !- Minute 1
  25.5555555555556;                       !- Value Until Time 1

OS:ThermostatSetpoint:DualSetpoint,
  {05aa04d4-c131-45c5-af48-6d935264c3aa}, !- Handle
  conditioned space temperature setpoint, !- Name
  {07daa6ae-9002-42fe-b8b4-e131e477b596}, !- Heating Setpoint Temperature Schedule Name
  {595825b8-9f55-4211-a9ce-7534d4ee769c}, !- Cooling Setpoint Temperature Schedule Name
  0;                                      !- Temperature Difference Between Cutout And Setpoint {deltaC}

OS:ScheduleTypeLimits,
  {5da8ea38-9681-4e54-8ebc-23d4eef405c1}, !- Handle
  Temperature,                            !- Name
  ,                                       !- Lower Limit Value
  ,                                       !- Upper Limit Value
  Continuous,                             !- Numeric Type
  Temperature;                            !- Unit Type

OS:Surface,
  {a95f277e-455a-49f7-8a84-e6c2e5e5639c}, !- Handle
  Roof1,                                  !- Name
  RoofCeiling,                            !- Surface Type
  {6dcb539a-eca4-47dc-8592-b5d025abade1}, !- Construction Name
  {c404cf5b-9a5e-4f07-8e85-95e881a644c8}, !- Space Name
  Outdoors,                               !- Outside Boundary Condition
  ,                                       !- Outside Boundary Condition Object
  SunExposed,                             !- Sun Exposure
  WindExposed,                            !- Wind Exposure
  ,                                       !- View Factor to Ground
  ,                                       !- Number of Vertices
  -26.9347048849634, 58.0557891618865, 2.4384, !- X,Y,Z Vertex 1 {m}
  -26.9347048849634, 46.7895631136661, 8.0715130241102, !- X,Y,Z Vertex 2 {m}
  -14.3386812381136, 46.7895631136661, 8.0715130241102, !- X,Y,Z Vertex 3 {m}
  -14.3386812381136, 58.0557891618865, 2.4384; !- X,Y,Z Vertex 4 {m}

OS:AdditionalProperties,
  {5fcf2265-7e37-4e47-9f0f-4a041efd614d}, !- Handle
  {a95f277e-455a-49f7-8a84-e6c2e5e5639c}, !- Object Name
  Length,                                 !- Feature Name 1
  Double,                                 !- Feature Data Type 1
  41.325536899113608,                     !- Feature Value 1
  Width,                                  !- Feature Name 2
  Double,                                 !- Feature Data Type 2
  41.325536899113601,                     !- Feature Value 2
  Azimuth,                                !- Feature Name 3
  Integer,                                !- Feature Data Type 3
  0,                                      !- Feature Value 3
  Tilt,                                   !- Feature Name 4
  Double,                                 !- Feature Data Type 4
  0.5,                                    !- Feature Value 4
  SurfaceType,                            !- Feature Name 5
  String,                                 !- Feature Data Type 5
  Roof;                                   !- Feature Value 5

OS:ThermalZone,
  {4a08be32-8ad6-4654-9432-105f9f38a8a9}, !- Handle
  attic - vented,                         !- Name
  1,                                      !- Multiplier
  ,                                       !- Ceiling Height {m}
  356.389957095237,                       !- Volume {m3}
  ,                                       !- Floor Area {m2}
  ,                                       !- Zone Inside Convection Algorithm
  ,                                       !- Zone Outside Convection Algorithm
  ,                                       !- Zone Conditioning Equipment List Name
  {4b09bf13-5c6f-4627-a2dd-14abfd6ef16c}, !- Zone Air Inlet Port List
  {78e882c9-5046-40f6-9c71-e85e6126cf56}, !- Zone Air Exhaust Port List
  {fabaf64a-0776-4952-bae3-8287aa3f9b99}, !- Zone Air Node Name
  {dea11d56-9739-4711-ba3b-b4dd053f87ec}, !- Zone Return Air Port List
  ,                                       !- Primary Daylighting Control Name
  ,                                       !- Fraction of Zone Controlled by Primary Daylighting Control
  ,                                       !- Secondary Daylighting Control Name
  ,                                       !- Fraction of Zone Controlled by Secondary Daylighting Control
  ,                                       !- Illuminance Map Name
  ,                                       !- Group Rendering Name
  ,                                       !- Thermostat Name
  No;                                     !- Use Ideal Air Loads

OS:Node,
  {098da3ab-729c-418b-af40-64760e9035aa}, !- Handle
  Node 2,                                 !- Name
  {fabaf64a-0776-4952-bae3-8287aa3f9b99}, !- Inlet Port
  ;                                       !- Outlet Port

OS:Connection,
  {fabaf64a-0776-4952-bae3-8287aa3f9b99}, !- Handle
  {4a08be32-8ad6-4654-9432-105f9f38a8a9}, !- Source Object
  11,                                     !- Outlet Port
  {098da3ab-729c-418b-af40-64760e9035aa}, !- Target Object
  2;                                      !- Inlet Port

OS:PortList,
  {4b09bf13-5c6f-4627-a2dd-14abfd6ef16c}, !- Handle
  {4a08be32-8ad6-4654-9432-105f9f38a8a9}; !- HVAC Component

OS:PortList,
  {78e882c9-5046-40f6-9c71-e85e6126cf56}, !- Handle
  {4a08be32-8ad6-4654-9432-105f9f38a8a9}; !- HVAC Component

OS:PortList,
  {dea11d56-9739-4711-ba3b-b4dd053f87ec}, !- Handle
  {4a08be32-8ad6-4654-9432-105f9f38a8a9}; !- HVAC Component

OS:Sizing:Zone,
  {d3db3189-5d67-4553-8edb-8327c332d981}, !- Handle
  {4a08be32-8ad6-4654-9432-105f9f38a8a9}, !- Zone or ZoneList Name
  SupplyAirTemperature,                   !- Zone Cooling Design Supply Air Temperature Input Method
  14,                                     !- Zone Cooling Design Supply Air Temperature {C}
  11.11,                                  !- Zone Cooling Design Supply Air Temperature Difference {deltaC}
  SupplyAirTemperature,                   !- Zone Heating Design Supply Air Temperature Input Method
  40,                                     !- Zone Heating Design Supply Air Temperature {C}
  11.11,                                  !- Zone Heating Design Supply Air Temperature Difference {deltaC}
  0.0085,                                 !- Zone Cooling Design Supply Air Humidity Ratio {kg-H2O/kg-air}
  0.008,                                  !- Zone Heating Design Supply Air Humidity Ratio {kg-H2O/kg-air}
  ,                                       !- Zone Heating Sizing Factor
  ,                                       !- Zone Cooling Sizing Factor
  DesignDay,                              !- Cooling Design Air Flow Method
  ,                                       !- Cooling Design Air Flow Rate {m3/s}
  ,                                       !- Cooling Minimum Air Flow per Zone Floor Area {m3/s-m2}
  ,                                       !- Cooling Minimum Air Flow {m3/s}
  ,                                       !- Cooling Minimum Air Flow Fraction
  DesignDay,                              !- Heating Design Air Flow Method
  ,                                       !- Heating Design Air Flow Rate {m3/s}
  ,                                       !- Heating Maximum Air Flow per Zone Floor Area {m3/s-m2}
  ,                                       !- Heating Maximum Air Flow {m3/s}
  ,                                       !- Heating Maximum Air Flow Fraction
  No,                                     !- Account for Dedicated Outdoor Air System
  NeutralSupplyAir,                       !- Dedicated Outdoor Air System Control Strategy
  autosize,                               !- Dedicated Outdoor Air Low Setpoint Temperature for Design {C}
  autosize,                               !- Dedicated Outdoor Air High Setpoint Temperature for Design {C}
  Sensible Load Only No Latent Load,      !- Zone Load Sizing Method
  HumidityRatioDifference,                !- Zone Latent Cooling Design Supply Air Humidity Ratio Input Method
  ,                                       !- Zone Dehumidification Design Supply Air Humidity Ratio {kgWater/kgDryAir}
  0.005,                                  !- Zone Cooling Design Supply Air Humidity Ratio Difference {kgWater/kgDryAir}
  HumidityRatioDifference,                !- Zone Latent Heating Design Supply Air Humidity Ratio Input Method
  ,                                       !- Zone Humidification Design Supply Air Humidity Ratio {kgWater/kgDryAir}
  0.005,                                  !- Zone Humidification Design Supply Air Humidity Ratio Difference {kgWater/kgDryAir}
  ,                                       !- Zone Humidistat Dehumidification Set Point Schedule Name
  ,                                       !- Zone Humidistat Humidification Set Point Schedule Name
  ,                                       !- Design Zone Air Distribution Effectiveness in Cooling Mode
  ,                                       !- Design Zone Air Distribution Effectiveness in Heating Mode
  ,                                       !- Design Zone Secondary Recirculation Fraction {dimensionless}
  ,                                       !- Design Minimum Zone Ventilation Efficiency {dimensionless}
  Coincident;                             !- Sizing Option

OS:ZoneHVAC:EquipmentList,
  {4524f95a-64fd-4dfa-a47e-b4b066f87f60}, !- Handle
  Zone HVAC Equipment List 2,             !- Name
  {4a08be32-8ad6-4654-9432-105f9f38a8a9}; !- Thermal Zone

OS:AdditionalProperties,
  {ec0e2725-9033-4d27-a9ea-19970a568f6b}, !- Handle
  {4a08be32-8ad6-4654-9432-105f9f38a8a9}, !- Object Name
  ObjectType,                             !- Feature Name 1
  String,                                 !- Feature Data Type 1
  attic - vented;                         !- Feature Value 1

OS:Space,
  {c404cf5b-9a5e-4f07-8e85-95e881a644c8}, !- Handle
  attic - vented 1,                       !- Name
  ,                                       !- Space Type Name
  ,                                       !- Default Construction Set Name
  ,                                       !- Default Schedule Set Name
  ,                                       !- Direction of Relative North {deg}
  ,                                       !- X Origin {m}
  ,                                       !- Y Origin {m}
  ,                                       !- Z Origin {m}
  ,                                       !- Building Story Name
  {4a08be32-8ad6-4654-9432-105f9f38a8a9}, !- Thermal Zone Name
  ,                                       !- Part of Total Floor Area
  ,                                       !- Design Specification Outdoor Air Object Name
  ,                                       !- Building Unit Name
  356.389957095237;                       !- Volume {m3}

OS:Material,
  {76b782a9-2638-418f-b8d6-432c04cd5de0}, !- Handle
  asphalt or fiberglass shingles,         !- Name
  Rough,                                  !- Roughness
  0.00635,                                !- Thickness {m}
  0.162714,                               !- Conductivity {W/m-K}
  1121.4,                                 !- Density {kg/m3}
  1465.45,                                !- Specific Heat {J/kg-K}
  0.9,                                    !- Thermal Absorptance
  0.85,                                   !- Solar Absorptance