
OS:Version,
  {71961a05-16c4-43eb-845e-a0cff9152825}, !- Handle
  3.10.0;                                 !- Version Identifier

OS:SimulationControl,
  {4e14cab2-4aad-417c-b308-05092ae15476}, !- Handle
  ,                                       !- Do Zone Sizing Calculation
  ,                                       !- Do System Sizing Calculation
  ,                                       !- Do Plant Sizing Calculation
  No;                                     !- Run Simulation for Sizing Periods

OS:Timestep,
  {f6263d42-6560-455e-8e2b-93ec38d35e6d}, !- Handle
  1;                                      !- Number of Timesteps per Hour

OS:ShadowCalculation,
  {86f21a6d-b174-4029-8251-575919ecdd7c}, !- Handle
  PolygonClipping,                        !- Shading Calculation Method
  ,                                       !- Shading Calculation Update Frequency Method
  20,                                     !- Shading Calculation Update Frequency
  200,                                    !- Maximum Figures in Shadow Overlap Calculations
  ,                                       !- Polygon Clipping Algorithm
  512,                                    !- Pixel Counting Resolution
  ,                                       !- Sky Diffuse Modeling Algorithm
  No,                                     !- Output External Shading Calculation Results
  No,                                     !- Disable Self-Shading Within Shading Zone Groups
  No;                                     !- Disable Self-Shading From Shading Zone Groups to Other Zones

OS:SurfaceConvectionAlgorithm:Outside,
  {597e8568-12cf-4f30-a3de-9db8bec47561}, !- Handle
  DOE-2;                                  !- Algorithm

OS:SurfaceConvectionAlgorithm:Inside,
  {56077165-d1cd-4e33-ac82-b4b4ad869c17}, !- Handle
  TARP;                                   !- Algorithm

OS:ZoneCapacitanceMultiplier:ResearchSpecial,
  {1ddf094e-da30-433c-ad06-4f6569fe1c32}, !- Handle
  7,                                      !- Temperature Capacity Multiplier
  15,                                     !- Humidity Capacity Multiplier
  ;                                       !- Carbon Dioxide Capacity Multiplier

OS:ConvergenceLimits,
  {4b7da2d8-2c26-4905-85ed-a0c2b7a87c89}, !- Handle
  0;                                      !- Minimum System Timestep {minutes}

OS:RunPeriod,
  {79f11444-191b-4615-9df7-5266c62086b5}, !- Handle
  Run Period 1,                           !- Name
  1,                                      !- Begin Month
  1,                                      !- Begin Day of Month
  12,                                     !- End Month
  31,                                     !- End Day of Month
  ,                                       !- Use Weather File Holidays and Special Days
  ,                                       !- Use Weather File Daylight Saving Period
  ,                                       !- Apply Weekend Holiday Rule
  ,                                       !- Use Weather File Rain Indicators
  ,                                       !- Use Weather File Snow Indicators
  ;                                       !- Number of Times Runperiod to be Repeated

OS:PerformancePrecisionTradeoffs,
  {8655ad9a-09f3-413b-a561-44e0edaccb64}, !- Handle
  ,                                       !- Use Coil Direct Solutions
  CarrollMRT;                             !- Zone Radiant Exchange Algorithm

OS:WeatherFile,
  {38a9d1b7-005b-4568-a2e6-efdc9464e87a}, !- Handle
  Buffalo Niagara Intl Ap,                !- City
  NY,                                     !- State Province Region
  USA,                                    !- Country
  TMY3,                                   !- Data Source
  725280,                                 !- WMO Number
  42.93,                                  !- Latitude {deg}
  -78.73,                                 !- Longitude {deg}
  -5,                                     !- Time Zone {hr}
  215,                                    !- Elevation {m}
  /Users/nmoore/github/urbanopt-example-geojson-project/example_project/weather/USA_NY_Buffalo-Greater.Buffalo.Intl.AP.725280_TMY3.epw, !- Url
  6B50E0FF,                               !- Checksum
  ,                                       !- Start Date Actual Year
  Sunday;                                 !- Start Day of Week

OS:YearDescription,
  {e45cd8c0-4699-4e72-982a-eead2377e708}, !- Handle
  2007,                                   !- Calendar Year
  ,                                       !- Day of Week for Start Day
  ;                                       !- Is Leap Year

OS:Site,
  {e1b144ca-cedf-4bbb-bd50-aab632cc0d3c}, !- Handle
  Buffalo Niagara Intl Ap_NY,             !- Name
  42.93,                                  !- Latitude {deg}
  -78.73,                                 !- Longitude {deg}
  -5,                                     !- Time Zone {hr}
  215,                                    !- Elevation {m}
  Suburbs,                                !- Terrain
  Yes;                                    !- Keep Site Location Information

OS:RunPeriodControl:DaylightSavingTime,
  {602a4b97-4c13-4594-9ed3-78e2efeda056}, !- Handle
  Mar 12,                                 !- Start Date
  Nov 5;                                  !- End Date

OS:Site:GroundTemperature:Shallow,
  {d5929ed0-3525-468d-9063-6d634c57b6d9}, !- Handle
  4.30207395723828,                       !- January Surface Ground Temperature {C}
  2.29327249652502,                       !- February Surface Ground Temperature {C}
  2.13240047156047,                       !- March Surface Ground Temperature {C}
  3.08567940719286,                       !- April Surface Ground Temperature {C}
  6.91256312497526,                       !- May Surface Ground Temperature {C}
  10.7216195949507,                       !- June Surface Ground Temperature {C}
  14.0238679822574,                       !- July Surface Ground Temperature {C}
  16.1157611184724,                       !- August Surface Ground Temperature {C}
  16.2934789303462,                       !- September Surface Ground Temperature {C}
  14.5920754632847,                       !- October Surface Ground Temperature {C}
  11.374036348653,                        !- November Surface Ground Temperature {C}
  7.68182621661674;                       !- December Surface Ground Temperature {C}

OS:ThermalZone,
  {28f07ee7-ee89-4026-9816-1fa7fbbfffb1}, !- Handle
  conditioned space,                      !- Name
  1,                                      !- Multiplier
  ,                                       !- Ceiling Height {m}
  692.06373070848,                        !- Volume {m3}
  ,                                       !- Floor Area {m2}
  ,                                       !- Zone Inside Convection Algorithm
  ,                                       !- Zone Outside Convection Algorithm
  ,                                       !- Zone Conditioning Equipment List Name
  {545330d3-e9b2-4f11-a74b-903e595d27c1}, !- Zone Air Inlet Port List
  {10cdaf59-40f0-4415-b06d-242a4c157e90}, !- Zone Air Exhaust Port List
  {045eff0e-e248-41c3-821b-f36b1f693c0c}, !- Zone Air Node Name
  {b5369018-a9ed-489d-b911-c1e362db07b8}, !- Zone Return Air Port List
  ,                                       !- Primary Daylighting Control Name
  ,                                       !- Fraction of Zone Controlled by Primary Daylighting Control
  ,                                       !- Secondary Daylighting Control Name
  ,                                       !- Fraction of Zone Controlled by Secondary Daylighting Control
  ,                                       !- Illuminance Map Name
  ,                                       !- Group Rendering Name
  {bb5fbf33-4a52-4d4f-94a4-324145600e03}, !- Thermostat Name
  No;                                     !- Use Ideal Air Loads

OS:Node,
  {025b6429-bf4f-4f91-b384-01b3d338c3b6}, !- Handle
  Node 1,                                 !- Name
  {045eff0e-e248-41c3-821b-f36b1f693c0c}, !- Inlet Port
  ;                                       !- Outlet Port

OS:Connection,
  {045eff0e-e248-41c3-821b-f36b1f693c0c}, !- Handle
  {28f07ee7-ee89-4026-9816-1fa7fbbfffb1}, !- Source Object
  11,                                     !- Outlet Port
  {025b6429-bf4f-4f91-b384-01b3d338c3b6}, !- Target Object
  2;                                      !- Inlet Port

OS:PortList,
  {545330d3-e9b2-4f11-a74b-903e595d27c1}, !- Handle
  {28f07ee7-ee89-4026-9816-1fa7fbbfffb1}, !- HVAC Component
  {5bed6f18-110b-4986-be0a-1421236c4e43}; !- Port 1

OS:PortList,
  {10cdaf59-40f0-4415-b06d-242a4c157e90}, !- Handle
  {28f07ee7-ee89-4026-9816-1fa7fbbfffb1}; !- HVAC Component

OS:PortList,
  {b5369018-a9ed-489d-b911-c1e362db07b8}, !- Handle
  {28f07ee7-ee89-4026-9816-1fa7fbbfffb1}, !- HVAC Component
  {0a235eef-e037-4ce8-b88b-d426e9b0ea0c}; !- Port 1

OS:Sizing:Zone,
  {8ddde58b-382d-42ac-9770-b40cff0ca6d0}, !- Handle
  {28f07ee7-ee89-4026-9816-1fa7fbbfffb1}, !- Zone or ZoneList Name
  SupplyAirTemperature,                   !- Zone Cooling Design Supply Air Temperature Input Method
  14,                                     !- Zone Cooling Design Supply Air Temperature {C}
  11.11,                                  !- Zone Cooling Design Supply Air Temperature Difference {deltaC}
  SupplyAirTemperature,                   !- Zone Heating Design Supply Air Temperature Input Method
  40,                                     !- Zone Heating Design Supply Air Temperature {C}
  11.11,                                  !- Zone Heating Design Supply Air Temperature Difference {deltaC}
  0.0085,                                 !- Zone Cooling Design Supply Air Humidity Ratio {kg-H2O/kg-air}
  0.008,                                  !- Zone Heating Design Supply Air Humidity Ratio {kg-H2O/kg-air}
  ,                                       !- Zone Heating Sizing Factor
  ,                                       !- Zone Cooling Sizing Factor
  DesignDay,                              !- Cooling Design Air Flow Method
  ,                                       !- Cooling Design Air Flow Rate {m3/s}
  ,                                       !- Cooling Minimum Air Flow per Zone Floor Area {m3/s-m2}
  ,                                       !- Cooling Minimum Air Flow {m3/s}
  ,                                       !- Cooling Minimum Air Flow Fraction
  DesignDay,                              !- Heating Design Air Flow Method
  ,                                       !- Heating Design Air Flow Rate {m3/s}
  ,                                       !- Heating Maximum Air Flow per Zone Floor Area {m3/s-m2}
  ,                                       !- Heating Maximum Air Flow {m3/s}
  ,                                       !- Heating Maximum Air Flow Fraction
  No,                                     !- Account for Dedicated Outdoor Air System
  NeutralSupplyAir,                       !- Dedicated Outdoor Air System Control Strategy
  autosize,                               !- Dedicated Outdoor Air Low Setpoint Temperature for Design {C}
  autosize,                               !- Dedicated Outdoor Air High Setpoint Temperature for Design {C}
  Sensible Load Only No Latent Load,      !- Zone Load Sizing Method
  HumidityRatioDifference,                !- Zone Latent Cooling Design Supply Air Humidity Ratio Input Method
  ,                                       !- Zone Dehumidification Design Supply Air Humidity Ratio {kgWater/kgDryAir}
  0.005,                                  !- Zone Cooling Design Supply Air Humidity Ratio Difference {kgWater/kgDryAir}
  HumidityRatioDifference,                !- Zone Latent Heating Design Supply Air Humidity Ratio Input Method
  ,                                       !- Zone Humidification Design Supply Air Humidity Ratio {kgWater/kgDryAir}
  0.005,                                  !- Zone Humidification Design Supply Air Humidity Ratio Difference {kgWater/kgDryAir}
  ,                                       !- Zone Humidistat Dehumidification Set Point Schedule Name
  ,                                       !- Zone Humidistat Humidification Set Point Schedule Name
  ,                                       !- Design Zone Air Distribution Effectiveness in Cooling Mode
  ,                                       !- Design Zone Air Distribution Effectiveness in Heating Mode
  ,                                       !- Design Zone Secondary Recirculation Fraction {dimensionless}
  ,                                       !- Design Minimum Zone Ventilation Efficiency {dimensionless}
  Coincident;                             !- Sizing Option

OS:ZoneHVAC:EquipmentList,
  {74268af1-1cc4-4b2d-b521-210ea18e6125}, !- Handle
  Zone HVAC Equipment List 1,             !- Name
  {28f07ee7-ee89-4026-9816-1fa7fbbfffb1}, !- Thermal Zone
  ,                                       !- Load Distribution Scheme
  {cfb4cb62-4015-4960-b4cd-18feb3227c2d}, !- Zone Equipment 1
  1,                                      !- Zone Equipment Cooling Sequence 1
  1,                                      !- Zone Equipment Heating or No-Load Sequence 1
  {0cf7d55a-bccd-4f89-b902-7a15a7e47a74}, !- Zone Equipment Sequential Cooling Fraction Schedule Name 1
  {a9e024e9-e17f-4b50-8446-0a12dbaf87f7}; !- Zone Equipment Sequential Heating Fraction Schedule Name 1

OS:AdditionalProperties,
  {11c90c1e-ff8e-4b2c-adb7-d1d7e76f66a8}, !- Handle
  {28f07ee7-ee89-4026-9816-1fa7fbbfffb1}, !- Object Name
  ObjectType,                             !- Feature Name 1
  String,                                 !- Feature Data Type 1
  conditioned space;                      !- Feature Value 1

OS:Space,
  {50f7801d-5770-4412-b903-0f289c42c6e2}, !- Handle
  conditioned space 1,                    !- Name
  ,                                       !- Space Type Name
  ,                                       !- Default Construction Set Name
  ,                                       !- Default Schedule Set Name
  ,                                       !- Direction of Relative North {deg}
  ,                                       !- X Origin {m}
  ,                                       !- Y Origin {m}
  ,                                       !- Z Origin {m}
  ,                                       !- Building Story Name
  {28f07ee7-ee89-4026-9816-1fa7fbbfffb1}, !- Thermal Zone Name
  ,                                       !- Part of Total Floor Area
  ,                                       !- Design Specification Outdoor Air Object Name
  ,                                       !- Building Unit Name
  692.06373070848;                        !- Volume {m3}

OS:Schedule:Ruleset,
  {4644374f-9cad-4b72-a03b-c77ded857387}, !- Handle
  heating setpoint,                       !- Name
  {567e7434-df93-436f-9aa0-dc1bd00d4287}, !- Schedule Type Limits Name
  {3c430200-715d-4a3d-bb01-53d2c17e7431}; !- Default Day Schedule Name

OS:Schedule:Day,
  {3c430200-715d-4a3d-bb01-53d2c17e7431}, !- Handle
  heating setpoint default day,           !- Name
  {567e7434-df93-436f-9aa0-dc1bd00d4287}, !- Schedule Type Limits Name
  ,                                       !- Interpolate to Timestep
  24,                                     !- Hour 1
  0,                                      !- Minute 1
  0;                                      !- Value Until Time 1

OS:Schedule:Rule,
  {ec8cbf88-9df8-4a54-aa1b-76ed5e649c82}, !- Handle
  heating setpoint allday rule,           !- Name
  {4644374f-9cad-4b72-a03b-c77ded857387}, !- Schedule Ruleset Name
  0,                                      !- Rule Order
  {a302aa2f-5a85-48c4-9515-e4c53ff2370c}, !- Day Schedule Name
  Yes,                                    !- Apply Sunday
  Yes,                                    !- Apply Monday
  Yes,                                    !- Apply Tuesday
  Yes,                                    !- Apply Wednesday
  Yes,                                    !- Apply Thursday
  Yes,                                    !- Apply Friday
  Yes,                                    !- Apply Saturday
  DateRange,                              !- Date Specification Type
  1,                                      !- Start Month
  1,                                      !- Start Day
  12,                                     !- End Month
  31;                                     !- End Day

OS:Schedule:Day,
  {a302aa2f-5a85-48c4-9515-e4c53ff2370c}, !- Handle
  heating setpoint day,                   !- Name
  {567e7434-df93-436f-9aa0-dc1bd00d4287}, !- Schedule Type Limits Name
  ,                                       !- Interpolate to Timestep
  24,                                     !- Hour 1
  0,                                      !- Minute 1
  20;                                     !- Value Until Time 1

OS:Schedule:Ruleset,
  {8c5d9838-8a0d-49ac-b736-dff8e5575898}, !- Handle
  cooling setpoint,                       !- Name
  {567e7434-df93-436f-9aa0-dc1bd00d4287}, !- Schedule Type Limits Name
  {ff8f304a-6c1d-40e7-b4a6-17e35548e23f}; !- Default Day Schedule Name

OS:Schedule:Day,
  {ff8f304a-6c1d-40e7-b4a6-17e35548e23f}, !- Handle
  cooling setpoint default day,           !- Name
  {567e7434-df93-436f-9aa0-dc1bd00d4287}, !- Schedule Type Limits Name
  ,                                       !- Interpolate to Timestep
  24,                                     !- Hour 1
  0,                                      !- Minute 1
  0;                                      !- Value Until Time 1

OS:Schedule:Rule,
  {189c52ba-7376-4a74-b095-59d31d53b98c}, !- Handle
  cooling setpoint allday rule,           !- Name
  {8c5d9838-8a0d-49ac-b736-dff8e5575898}, !- Schedule Ruleset Name
  0,                                      !- Rule Order
  {aa00c0cb-edb4-4bb4-8a94-69d1b4090622}, !- Day Schedule Name
  Yes,                                    !- Apply Sunday
  Yes,                                    !- Apply Monday
  Yes,                                    !- Apply Tuesday
  Yes,                                    !- Apply Wednesday
  Yes,                                    !- Apply Thursday
  Yes,                                    !- Apply Friday
  Yes,                                    !- Apply Saturday
  DateRange,                              !- Date Specification Type
  1,                                      !- Start Month
  1,                                      !- Start Day
  12,                                     !- End Month
  31;                                     !- End Day

OS:Schedule:Day,
  {aa00c0cb-edb4-4bb4-8a94-69d1b4090622}, !- Handle
  cooling setpoint day,                   !- Name
  {567e7434-df93-436f-9aa0-dc1bd00d4287}, !- Schedule Type Limits Name
  ,                                       !- Interpolate to Timestep
  24,                                     !- Hour 1
  0,                                      !- Minute 1
  25.5555555555556;                       !- Value Until Time 1

OS:ThermostatSetpoint:DualSetpoint,
  {bb5fbf33-4a52-4d4f-94a4-324145600e03}, !- Handle
  conditioned space temperature setpoint, !- Name
  {4644374f-9cad-4b72-a03b-c77ded857387}, !- Heating Setpoint Temperature Schedule Name
  {8c5d9838-8a0d-49ac-b736-dff8e5575898}, !- Cooling Setpoint Temperature Schedule Name
  0;                                      !- Temperature Difference Between Cutout And Setpoint {deltaC}

OS:ScheduleTypeLimits,
  {567e7434-df93-436f-9aa0-dc1bd00d4287}, !- Handle
  Temperature,                            !- Name
  ,                                       !- Lower Limit Value
  ,                                       !- Upper Limit Value
  Continuous,                             !- Numeric Type
  Temperature;                            !- Unit Type

OS:Surface,
  {85126222-656f-4e8a-b372-52658dee4685}, !- Handle
  Roof1,                                  !- Name
  RoofCeiling,                            !- Surface Type
  {2ce51fc3-0b0b-4bfd-b868-9338822bf525}, !- Construction Name
  {50f7801d-5770-4412-b903-0f289c42c6e2}, !- Space Name
  Outdoors,                               !- Outside Boundary Condition
  ,                                       !- Outside Boundary Condition Object
  SunExposed,                             !- Sun Exposure
  WindExposed,                            !- Wind Exposure
  ,                                       !- View Factor to Ground
  ,                                       !- Number of Vertices
  -8.42346109387347, 8.42346109387347, 2.4384, !- X,Y,Z Vertex 1 {m}
  -8.42346109387347, -8.42346109387347, 2.4384, !- X,Y,Z Vertex 2 {m}
  8.42346109387347, -8.42346109387347, 2.4384, !- X,Y,Z Vertex 3 {m}
  8.42346109387347, 8.42346109387347, 2.4384; !- X,Y,Z Vertex 4 {m}

OS:AdditionalProperties,
  {15ec5197-77c2-4f6f-88c6-510c8d0c5300}, !- Handle
  {85126222-656f-4e8a-b372-52658dee4685}, !- Object Name
  Length,                                 !- Feature Name 1
  Double,                                 !- Feature Data Type 1
  55.27205442174192,                      !- Feature Value 1
  Width,                                  !- Feature Name 2
  Double,                                 !- Feature Data Type 2
  55.272054421741913,                     !- Feature Value 2
  Azimuth,                                !- Feature Name 3
  Integer,                                !- Feature Data Type 3
  0,                                      !- Feature Value 3
  Tilt,                                   !- Feature Name 4
  Double,                                 !- Feature Data Type 4
  0,                                      !- Feature Value 4
  SurfaceType,                            !- Feature Name 5
  String,                                 !- Feature Data Type 5
  Roof;                                   !- Feature Value 5

OS:Material,
  {6c863244-d28a-4bf2-970c-326828882d1d}, !- Handle
  asphalt or fiberglass shingles,         !- Name
  Rough,                                  !- Roughness
  0.00635,                                !- Thickness {m}
  0.162714,                               !- Conductivity {W/m-K}
  1121.4,                                 !- Density {kg/m3}
  1465.45,                                !- Specific Heat {J/kg-K}
  0.9,                                    !- Thermal Absorptance
  0.85,                                   !- Solar Absorptance
  0.85;                                   !- Visible Absorptance

OS:Material,
  {6c40561d-5e7f-4d3d-b492-0e927a270fd3}, !- Handle
  roof stud and cavity,                   !- Name
  Rough,                                  !- Roughness
  0.0889,                                 !- Thickness {m}
  0.491900632004487,                      !- Conductivity {W/m-K}
  50.32683,                               !- Density {kg/m3}
  1063.80987585548,                       !- Specific Heat {J/kg-K}
  0.9,                                    !- Thermal Absorptance
  0.7,                                    !- Solar Absorptance
  0.7;                                    !- Visible Absorptance

OS:Material,
  {86d220a6-e2e9-4a37-8d6d-eeaaccf0ef00}, !- Handle
  gypsum board,                           !- Name
  Rough,                                  !- Roughness
  0.00254,                                !- Thickness {m}
  0.1602906,                              !- Conductivity {W/m-K}
  801,                                    !- Density {kg/m3}
  837.4,                                  !- Specific Heat {J/kg-K}
  0.9,                                    !- Thermal Absorptance
  0.6,                                    !- Solar Absorptance
  0.6;                                    !- Visible Absorptance

OS:Construction,
  {2ce51fc3-0b0b-4bfd-b868-9338822bf525}, !- Handle
  Roof1 construction,                     !- Name
  ,                                       !- Surface Rendering Name
  {6c863244-d28a-4bf2-970c-326828882d1d}, !- Layer 1
  {6c40561d-5e7f-4d3d-b492-0e927a270fd3}, !- Layer 2
  {86d220a6-e2e9-4a37-8d6d-eeaaccf0ef00}; !- Layer 3

OS:Surface,
  {473ef5d2-e308-4b9a-8bb4-d0e3de4b179e}, !- Handle
  Wall1,                                  !- Name
  Wall,                                   !- Surface Type
  {8f4f76e8-f07d-49c2-86c2-a70375fb6b95}, !- Construction Name
  {50f7801d-5770-4412-b903-0f289c42c6e2}, !- Space Name
  Outdoors,                               !- Outside Boundary Condition
  ,                                       !- Outside Boundary Condition Object
  SunExposed,                             !- Sun Exposure
  WindExposed,                            !- Wind Exposure
  ,                                       !- View Factor to Ground
  ,                                       !- Number of Vertices
  -50.3642317384615, 51.2932621384616, 0, !- X,Y,Z Vertex 1 {m}
  -50.3642317384615, 51.2932621384616, 2.4384, !- X,Y,Z Vertex 2 {m}
  -30.8303617384615, 51.2932621384616, 2.4384, !- X,Y,Z Vertex 3 {m}
  -30.8303617384615, 51.2932621384616, 0; !- X,Y,Z Vertex 4 {m}

OS:AdditionalProperties,
  {884e2cb8-faa2-43b5-b0ff-1f37925e481b}, !- Handle
  {473ef5d2-e308-4b9a-8bb4-d0e3de4b179e}, !- Object Name
  Length,                                 !- Feature Name 1
  Double,                                 !- Feature Data Type 1
  64.087499999999991,                     !- Feature Value 1
  Azimuth,                                !- Feature Name 2
  Integer,                                !- Feature Data Type 2
  0,                                      !- Feature Value 2
  Tilt,                                   !- Feature Name 3
  Double,                                 !- Feature Data Type 3
  90,                                     !- Feature Value 3
  SurfaceType,                            !- Feature Name 4
  String,                                 !- Feature Data Type 4
  Wall;                                   !- Feature Value 4

OS:Material,
  {8537eb9f-950c-4fd9-b9b5-9ec989a63fa0}, !- Handle
  wood siding,                            !- Name
  Rough,                                  !- Roughness
  0.0254,                                 !- Thickness {m}
  0.1024175,                              !- Conductivity {W/m-K}
  544.68,                                 !- Density {kg/m3}
  1172.36,                                !- Specific Heat {J/kg-K}
  0.9,                                    !- Thermal Absorptance
  0.7,                                    !- Solar Absorptance
  0.7;                                    !- Visible Absorptance

OS:Material,
  {309e4cc2-3fba-4da9-a351-867fb1eb085d}, !- Handle
  osb sheathing 0.5 in.,                  !- Name
  Rough,                                  !- Roughness
  0.0127,                                 !- Thickness {m}
  0.1154577,                              !- Conductivity {W/m-K}
  512.64,                                 !- Density {kg/m3}
  1214.23,                                !- Specific Heat {J/kg-K}
  0.9,                                    !- Thermal Absorptance
  0.7,                                    !- Solar Absorptance
  0.7;                                    !- Visible Absorptance

OS:Material,
  {90128975-b28b-463c-a073-f75afba6b653}, !- Handle
  wall stud and cavity,                   !- Name
  Rough,                                  !- Roughness
  0.1397,                                 !- Thickness {m}
  0.0929021674204099,                     !- Conductivity {W/m-K}
  139.0536,                               !- Density {kg/m3}
  1170.23755760369,                       !- Specific Heat {J/kg-K}
  0.9,                                    !- Thermal Absorptance
  0.7,                                    !- Solar Absorptance
  0.7;                                    !- Visible Absorptance

OS:Material,
  {b5af8ac6-09d9-49cc-ba04-a4bd2546dc7c}, !- Handle
  gypsum board 1,                         !- Name
  Rough,                                  !- Roughness
  0.0127,                                 !- Thickness {m}
  0.1602906,                              !- Conductivity {W/m-K}
  801,                                    !- Density {kg/m3}
  837.4,                                  !- Specific Heat {J/kg-K}
  0.9,                                    !- Thermal Absorptance
  0.6,                                    !- Solar Absorptance
  0.6;                                    !- Visible Absorptance

OS:Construction,
  {8f4f76e8-f07d-49c2-86c2-a70375fb6b95}, !- Handle
  Wall1 construction,                     !- Name
  ,                                       !- Surface Rendering Name
  {8537eb9f-950c-4fd9-b9b5-9ec989a63fa0}, !- Layer 1
  {309e4cc2-3fba-4da9-a351-867fb1eb085d}, !- Layer 2
  {90128975-b28b-463c-a073-f75afba6b653}, !- Layer 3
  {b5af8ac6-09d9-49cc-ba04-a4bd2546dc7c}; !- Layer 4

OS:Surface,
  {1c84d147-9d81-437c-91b0-0220d43ac003}, !- Handle
  Wall2,                                  !- Name
  Wall,                                   !- Surface Type
  {c5f93436-f9ba-46db-b1d8-0a8f348c0902}, !- Construction Name
  {50f7801d-5770-4412-b903-0f289c42c6e2}, !- Space Name
  Outdoors,                               !- Outside Boundary Condition
  ,                                       !- Outside Boundary Condition Object
  SunExposed,                             !- Sun Exposure
  WindExposed,                            !- Wind Exposure
  ,                                       !- View Factor to Ground
  ,                                       !- Number of Vertices
  51.2932621384616, -36.1953302, 0,       !- X,Y,Z Vertex 1 {m}
  51.2932621384616, -36.1953302, 2.4384,  !- X,Y,Z Vertex 2 {m}
  51.2932621384616, -45.9641702, 2.4384,  !- X,Y,Z Vertex 3 {m}
  51.2932621384616, -45.9641702, 0;       !- X,Y,Z Vertex 4 {m}

OS:AdditionalProperties,
  {12ccd164-6f90-4ecb-8ca6-f90c958ab27d}, !- Handle
  {1c84d147-9d81-437c-91b0-0220d43ac003}, !- Object Name
  Length,                                 !- Feature Name 1
  Double,                                 !- Feature Data Type 1
  32.049999999999997,                     !- Feature Value 1
  Azimuth,                                !- Feature Name 2