
OS:Version,
  {d05b8119-997f-44ab-a320-110e88c31758}, !- Handle
  3.9.0;                                  !- Version Identifier

OS:SimulationControl,
  {9abd8c88-8e20-446a-abc4-169a652b98e6}, !- Handle
  ,                                       !- Do Zone Sizing Calculation
  ,                                       !- Do System Sizing Calculation
  ,                                       !- Do Plant Sizing Calculation
  No;                                     !- Run Simulation for Sizing Periods

OS:Timestep,
  {71fffd58-f240-4738-8eef-6393ba716d99}, !- Handle
  1;                                      !- Number of Timesteps per Hour

OS:ShadowCalculation,
  {0119a7ec-2599-49fb-ab1d-7aeb397be021}, !- Handle
  PolygonClipping,                        !- Shading Calculation Method
  ,                                       !- Shading Calculation Update Frequency Method
  20,                                     !- Shading Calculation Update Frequency
  200,                                    !- Maximum Figures in Shadow Overlap Calculations
  ,                                       !- Polygon Clipping Algorithm
  512,                                    !- Pixel Counting Resolution
  ,                                       !- Sky Diffuse Modeling Algorithm
  No,                                     !- Output External Shading Calculation Results
  No,                                     !- Disable Self-Shading Within Shading Zone Groups
  No;                                     !- Disable Self-Shading From Shading Zone Groups to Other Zones

OS:SurfaceConvectionAlgorithm:Outside,
  {c50e5910-7deb-42f2-b963-2107a6d0db75}, !- Handle
  DOE-2;                                  !- Algorithm

OS:SurfaceConvectionAlgorithm:Inside,
  {e3250764-8aaf-4595-bc69-e8619cec9d77}, !- Handle
  TARP;                                   !- Algorithm

OS:ZoneCapacitanceMultiplier:ResearchSpecial,
  {9fcfc2a9-9c19-47cd-a58d-54af84799623}, !- Handle
  7,                                      !- Temperature Capacity Multiplier
  15,                                     !- Humidity Capacity Multiplier
  ;                                       !- Carbon Dioxide Capacity Multiplier

OS:ConvergenceLimits,
  {47daf901-d098-4d48-9167-ce3978f5d8ac}, !- Handle
  0;                                      !- Minimum System Timestep {minutes}

OS:RunPeriod,
  {fa75b57a-76be-48a6-96f1-ca003ba262bb}, !- Handle
  Run Period 1,                           !- Name
  1,                                      !- Begin Month
  1,                                      !- Begin Day of Month
  12,                                     !- End Month
  31,                                     !- End Day of Month
  ,                                       !- Use Weather File Holidays and Special Days
  ,                                       !- Use Weather File Daylight Saving Period
  ,                                       !- Apply Weekend Holiday Rule
  ,                                       !- Use Weather File Rain Indicators
  ,                                       !- Use Weather File Snow Indicators
  ;                                       !- Number of Times Runperiod to be Repeated

OS:PerformancePrecisionTradeoffs,
  {310451d9-ef5e-44c4-b896-40550dcb2c66}, !- Handle
  ,                                       !- Use Coil Direct Solutions
  CarrollMRT;                             !- Zone Radiant Exchange Algorithm

OS:WeatherFile,
  {f4170065-4c8f-4239-9125-263335ffe3f8}, !- Handle
  Buffalo Niagara Intl Ap,                !- City
  NY,                                     !- State Province Region
  USA,                                    !- Country
  TMY3,                                   !- Data Source
  725280,                                 !- WMO Number
  42.93,                                  !- Latitude {deg}
  -78.73,                                 !- Longitude {deg}
  -5,                                     !- Time Zone {hr}
  215,                                    !- Elevation {m}
  /Users/nmoore/github/urbanopt-example-geojson-project/example_project/weather/USA_NY_Buffalo-Greater.Buffalo.Intl.AP.725280_TMY3.epw, !- Url
  6B50E0FF,                               !- Checksum
  ,                                       !- Start Date Actual Year
  Sunday;                                 !- Start Day of Week

OS:YearDescription,
  {62b7512c-ffc4-47af-bba5-7f7d2cb2eb84}, !- Handle
  2007,                                   !- Calendar Year
  ,                                       !- Day of Week for Start Day
  ;                                       !- Is Leap Year

OS:Site,
  {11e3856e-284b-40bb-bfd0-fa032135e376}, !- Handle
  Buffalo Niagara Intl Ap_NY,             !- Name
  42.93,                                  !- Latitude {deg}
  -78.73,                                 !- Longitude {deg}
  -5,                                     !- Time Zone {hr}
  215,                                    !- Elevation {m}
  Suburbs,                                !- Terrain
  Yes;                                    !- Keep Site Location Information

OS:RunPeriodControl:DaylightSavingTime,
  {6457a1e9-6d5d-48bc-8b6e-e172a1175c96}, !- Handle
  Mar 12,                                 !- Start Date
  Nov 5;                                  !- End Date

OS:Site:GroundTemperature:Shallow,
  {8f5853ba-93b3-4675-af5f-cc9ae7a0de00}, !- Handle
  4.30207395723828,                       !- January Surface Ground Temperature {C}
  2.29327249652502,                       !- February Surface Ground Temperature {C}
  2.13240047156047,                       !- March Surface Ground Temperature {C}
  3.08567940719286,                       !- April Surface Ground Temperature {C}
  6.91256312497526,                       !- May Surface Ground Temperature {C}
  10.7216195949507,                       !- June Surface Ground Temperature {C}
  14.0238679822574,                       !- July Surface Ground Temperature {C}
  16.1157611184724,                       !- August Surface Ground Temperature {C}
  16.2934789303462,                       !- September Surface Ground Temperature {C}
  14.5920754632847,                       !- October Surface Ground Temperature {C}
  11.374036348653,                        !- November Surface Ground Temperature {C}
  7.68182621661674;                       !- December Surface Ground Temperature {C}

OS:ThermalZone,
  {3c473128-f326-4e39-9381-12ed6834d078}, !- Handle
  conditioned space,                      !- Name
  1,                                      !- Multiplier
  ,                                       !- Ceiling Height {m}
  692.06373070848,                        !- Volume {m3}
  ,                                       !- Floor Area {m2}
  ,                                       !- Zone Inside Convection Algorithm
  ,                                       !- Zone Outside Convection Algorithm
  ,                                       !- Zone Conditioning Equipment List Name
  {c418ed29-ea12-498b-a5f2-05759c126b8c}, !- Zone Air Inlet Port List
  {dce80bf4-2a7c-44d5-b254-f82713e94d2e}, !- Zone Air Exhaust Port List
  {14de7ee6-9875-42c0-a17a-1745b1c5ece0}, !- Zone Air Node Name
  {42554980-292e-4630-ac5d-5ccab53f1f66}, !- Zone Return Air Port List
  ,                                       !- Primary Daylighting Control Name
  ,                                       !- Fraction of Zone Controlled by Primary Daylighting Control
  ,                                       !- Secondary Daylighting Control Name
  ,                                       !- Fraction of Zone Controlled by Secondary Daylighting Control
  ,                                       !- Illuminance Map Name
  ,                                       !- Group Rendering Name
  {b5338c46-7748-42b6-a7c3-0b4d97282532}, !- Thermostat Name
  No;                                     !- Use Ideal Air Loads

OS:Node,
  {86cca595-0ad6-49f6-bdd0-06aa56ba36b7}, !- Handle
  Node 1,                                 !- Name
  {14de7ee6-9875-42c0-a17a-1745b1c5ece0}, !- Inlet Port
  ;                                       !- Outlet Port

OS:Connection,
  {14de7ee6-9875-42c0-a17a-1745b1c5ece0}, !- Handle
  {3c473128-f326-4e39-9381-12ed6834d078}, !- Source Object
  11,                                     !- Outlet Port
  {86cca595-0ad6-49f6-bdd0-06aa56ba36b7}, !- Target Object
  2;                                      !- Inlet Port

OS:PortList,
  {c418ed29-ea12-498b-a5f2-05759c126b8c}, !- Handle
  {3c473128-f326-4e39-9381-12ed6834d078}, !- HVAC Component
  {d2c8b301-2328-4517-9d34-211b1bea753c}; !- Port 1

OS:PortList,
  {dce80bf4-2a7c-44d5-b254-f82713e94d2e}, !- Handle
  {3c473128-f326-4e39-9381-12ed6834d078}; !- HVAC Component

OS:PortList,
  {42554980-292e-4630-ac5d-5ccab53f1f66}, !- Handle
  {3c473128-f326-4e39-9381-12ed6834d078}, !- HVAC Component
  {070c5610-3c14-4ced-ba98-82813dfc1dc5}; !- Port 1

OS:Sizing:Zone,
  {df6d968d-c72d-4954-88d7-3501c41c922a}, !- Handle
  {3c473128-f326-4e39-9381-12ed6834d078}, !- Zone or ZoneList Name
  SupplyAirTemperature,                   !- Zone Cooling Design Supply Air Temperature Input Method
  14,                                     !- Zone Cooling Design Supply Air Temperature {C}
  11.11,                                  !- Zone Cooling Design Supply Air Temperature Difference {deltaC}
  SupplyAirTemperature,                   !- Zone Heating Design Supply Air Temperature Input Method
  40,                                     !- Zone Heating Design Supply Air Temperature {C}
  11.11,                                  !- Zone Heating Design Supply Air Temperature Difference {deltaC}
  0.0085,                                 !- Zone Cooling Design Supply Air Humidity Ratio {kg-H2O/kg-air}
  0.008,                                  !- Zone Heating Design Supply Air Humidity Ratio {kg-H2O/kg-air}
  ,                                       !- Zone Heating Sizing Factor
  ,                                       !- Zone Cooling Sizing Factor
  DesignDay,                              !- Cooling Design Air Flow Method
  ,                                       !- Cooling Design Air Flow Rate {m3/s}
  ,                                       !- Cooling Minimum Air Flow per Zone Floor Area {m3/s-m2}
  ,                                       !- Cooling Minimum Air Flow {m3/s}
  ,                                       !- Cooling Minimum Air Flow Fraction
  DesignDay,                              !- Heating Design Air Flow Method
  ,                                       !- Heating Design Air Flow Rate {m3/s}
  ,                                       !- Heating Maximum Air Flow per Zone Floor Area {m3/s-m2}
  ,                                       !- Heating Maximum Air Flow {m3/s}
  ,                                       !- Heating Maximum Air Flow Fraction
  No,                                     !- Account for Dedicated Outdoor Air System
  NeutralSupplyAir,                       !- Dedicated Outdoor Air System Control Strategy
  autosize,                               !- Dedicated Outdoor Air Low Setpoint Temperature for Design {C}
  autosize,                               !- Dedicated Outdoor Air High Setpoint Temperature for Design {C}
  Sensible Load Only No Latent Load,      !- Zone Load Sizing Method
  HumidityRatioDifference,                !- Zone Latent Cooling Design Supply Air Humidity Ratio Input Method
  ,                                       !- Zone Dehumidification Design Supply Air Humidity Ratio {kgWater/kgDryAir}
  0.005,                                  !- Zone Cooling Design Supply Air Humidity Ratio Difference {kgWater/kgDryAir}
  HumidityRatioDifference,                !- Zone Latent Heating Design Supply Air Humidity Ratio Input Method
  ,                                       !- Zone Humidification Design Supply Air Humidity Ratio {kgWater/kgDryAir}
  0.005,                                  !- Zone Humidification Design Supply Air Humidity Ratio Difference {kgWater/kgDryAir}
  ,                                       !- Zone Humidistat Dehumidification Set Point Schedule Name
  ,                                       !- Zone Humidistat Humidification Set Point Schedule Name
  ,                                       !- Design Zone Air Distribution Effectiveness in Cooling Mode
  ,                                       !- Design Zone Air Distribution Effectiveness in Heating Mode
  ,                                       !- Design Zone Secondary Recirculation Fraction {dimensionless}
  ,                                       !- Design Minimum Zone Ventilation Efficiency {dimensionless}
  Coincident;                             !- Sizing Option

OS:ZoneHVAC:EquipmentList,
  {b8c97a32-5cd4-4ae7-95ab-1c2261c35ecc}, !- Handle
  Zone HVAC Equipment List 1,             !- Name
  {3c473128-f326-4e39-9381-12ed6834d078}, !- Thermal Zone
  ,                                       !- Load Distribution Scheme
  {f32c3f91-eab9-444f-8345-2e10090db350}, !- Zone Equipment 1
  1,                                      !- Zone Equipment Cooling Sequence 1
  1,                                      !- Zone Equipment Heating or No-Load Sequence 1
  {be17e49f-9702-408f-b878-ee1c4087d125}, !- Zone Equipment Sequential Cooling Fraction Schedule Name 1
  {fbc842fb-fd5c-4b95-afd8-0e64c04f0242}; !- Zone Equipment Sequential Heating Fraction Schedule Name 1

OS:AdditionalProperties,
  {c71041c2-d584-4422-8e43-97a76dbcf935}, !- Handle
  {3c473128-f326-4e39-9381-12ed6834d078}, !- Object Name
  ObjectType,                             !- Feature Name 1
  String,                                 !- Feature Data Type 1
  conditioned space;                      !- Feature Value 1

OS:Space,
  {47131c2a-79e6-435f-976d-1f0bb371207f}, !- Handle
  conditioned space 1,                    !- Name
  ,                                       !- Space Type Name
  ,                                       !- Default Construction Set Name
  ,                                       !- Default Schedule Set Name
  ,                                       !- Direction of Relative North {deg}
  ,                                       !- X Origin {m}
  ,                                       !- Y Origin {m}
  ,                                       !- Z Origin {m}
  ,                                       !- Building Story Name
  {3c473128-f326-4e39-9381-12ed6834d078}, !- Thermal Zone Name
  ,                                       !- Part of Total Floor Area
  ,                                       !- Design Specification Outdoor Air Object Name
  ,                                       !- Building Unit Name
  692.06373070848;                        !- Volume {m3}

OS:Schedule:Ruleset,
  {2ebfed84-6be7-4093-bf52-363d328766bb}, !- Handle
  heating setpoint,                       !- Name
  {52c04f6b-904c-48fb-95bf-5a06af48433a}, !- Schedule Type Limits Name
  {b0cf4577-4807-413a-992d-65b8f9704a96}; !- Default Day Schedule Name

OS:Schedule:Day,
  {b0cf4577-4807-413a-992d-65b8f9704a96}, !- Handle
  heating setpoint default day,           !- Name
  {52c04f6b-904c-48fb-95bf-5a06af48433a}, !- Schedule Type Limits Name
  ,                                       !- Interpolate to Timestep
  24,                                     !- Hour 1
  0,                                      !- Minute 1
  0;                                      !- Value Until Time 1

OS:Schedule:Rule,
  {29689d4f-edf8-4949-b8dc-c39560571c56}, !- Handle
  heating setpoint allday rule,           !- Name
  {2ebfed84-6be7-4093-bf52-363d328766bb}, !- Schedule Ruleset Name
  0,                                      !- Rule Order
  {f1c3a0e3-cd6c-4d4c-83b7-a7b66c8ee8b4}, !- Day Schedule Name
  Yes,                                    !- Apply Sunday
  Yes,                                    !- Apply Monday
  Yes,                                    !- Apply Tuesday
  Yes,                                    !- Apply Wednesday
  Yes,                                    !- Apply Thursday
  Yes,                                    !- Apply Friday
  Yes,                                    !- Apply Saturday
  DateRange,                              !- Date Specification Type
  1,                                      !- Start Month
  1,                                      !- Start Day
  12,                                     !- End Month
  31;                                     !- End Day

OS:Schedule:Day,
  {f1c3a0e3-cd6c-4d4c-83b7-a7b66c8ee8b4}, !- Handle
  heating setpoint day,                   !- Name
  {52c04f6b-904c-48fb-95bf-5a06af48433a}, !- Schedule Type Limits Name
  ,                                       !- Interpolate to Timestep
  24,                                     !- Hour 1
  0,                                      !- Minute 1
  20;                                     !- Value Until Time 1

OS:Schedule:Ruleset,
  {066970aa-dc25-4675-abef-3f7420ae83d7}, !- Handle
  cooling setpoint,                       !- Name
  {52c04f6b-904c-48fb-95bf-5a06af48433a}, !- Schedule Type Limits Name
  {7bf9a10f-adf7-4230-9a4b-8bb6818188b4}; !- Default Day Schedule Name

OS:Schedule:Day,
  {7bf9a10f-adf7-4230-9a4b-8bb6818188b4}, !- Handle
  cooling setpoint default day,           !- Name
  {52c04f6b-904c-48fb-95bf-5a06af48433a}, !- Schedule Type Limits Name
  ,                                       !- Interpolate to Timestep
  24,                                     !- Hour 1
  0,                                      !- Minute 1
  0;                                      !- Value Until Time 1

OS:Schedule:Rule,
  {8399a12f-ece8-43c7-ae1b-513021cc2ded}, !- Handle
  cooling setpoint allday rule,           !- Name
  {066970aa-dc25-4675-abef-3f7420ae83d7}, !- Schedule Ruleset Name
  0,                                      !- Rule Order
  {5c1f5626-5298-4a4d-942e-b5879a99f1a2}, !- Day Schedule Name
  Yes,                                    !- Apply Sunday
  Yes,                                    !- Apply Monday
  Yes,                                    !- Apply Tuesday
  Yes,                                    !- Apply Wednesday
  Yes,                                    !- Apply Thursday
  Yes,                                    !- Apply Friday
  Yes,                                    !- Apply Saturday
  DateRange,                              !- Date Specification Type
  1,                                      !- Start Month
  1,                                      !- Start Day
  12,                                     !- End Month
  31;                                     !- End Day

OS:Schedule:Day,
  {5c1f5626-5298-4a4d-942e-b5879a99f1a2}, !- Handle
  cooling setpoint day,                   !- Name
  {52c04f6b-904c-48fb-95bf-5a06af48433a}, !- Schedule Type Limits Name
  ,                                       !- Interpolate to Timestep
  24,                                     !- Hour 1
  0,                                      !- Minute 1
  25.5555555555556;                       !- Value Until Time 1

OS:ThermostatSetpoint:DualSetpoint,
  {b5338c46-7748-42b6-a7c3-0b4d97282532}, !- Handle
  conditioned space temperature setpoint, !- Name
  {2ebfed84-6be7-4093-bf52-363d328766bb}, !- Heating Setpoint Temperature Schedule Name
  {066970aa-dc25-4675-abef-3f7420ae83d7}, !- Cooling Setpoint Temperature Schedule Name
  0;                                      !- Temperature Difference Between Cutout And Setpoint {deltaC}

OS:ScheduleTypeLimits,
  {52c04f6b-904c-48fb-95bf-5a06af48433a}, !- Handle
  Temperature,                            !- Name
  ,                                       !- Lower Limit Value
  ,                                       !- Upper Limit Value
  Continuous,                             !- Numeric Type
  Temperature;                            !- Unit Type

OS:Surface,
  {2612d37e-3edb-4e38-9476-08c08a6e8df6}, !- Handle
  Roof1,                                  !- Name
  RoofCeiling,                            !- Surface Type
  {676be8f0-853a-45a7-9802-485cd1e942d3}, !- Construction Name
  {47131c2a-79e6-435f-976d-1f0bb371207f}, !- Space Name
  Outdoors,                               !- Outside Boundary Condition
  ,                                       !- Outside Boundary Condition Object
  SunExposed,                             !- Sun Exposure
  WindExposed,                            !- Wind Exposure
  ,                                       !- View Factor to Ground
  ,                                       !- Number of Vertices
  -8.42346109387347, 8.42346109387347, 2.4384, !- X,Y,Z Vertex 1 {m}
  -8.42346109387347, -8.42346109387347, 2.4384, !- X,Y,Z Vertex 2 {m}
  8.42346109387347, -8.42346109387347, 2.4384, !- X,Y,Z Vertex 3 {m}
  8.42346109387347, 8.42346109387347, 2.4384; !- X,Y,Z Vertex 4 {m}

OS:AdditionalProperties,
  {013f81df-2ace-46a2-b35e-09fa634b534d}, !- Handle
  {2612d37e-3edb-4e38-9476-08c08a6e8df6}, !- Object Name
  Length,                                 !- Feature Name 1
  Double,                                 !- Feature Data Type 1
  55.27205442174192,                      !- Feature Value 1
  Width,                                  !- Feature Name 2
  Double,                                 !- Feature Data Type 2
  55.272054421741913,                     !- Feature Value 2
  Azimuth,                                !- Feature Name 3
  Integer,                                !- Feature Data Type 3
  0,                                      !- Feature Value 3
  Tilt,                                   !- Feature Name 4
  Double,                                 !- Feature Data Type 4
  0,                                      !- Feature Value 4
  SurfaceType,                            !- Feature Name 5
  String,                                 !- Feature Data Type 5
  Roof;                                   !- Feature Value 5

OS:Material,
  {8f1403c4-8b6e-469d-b3ab-5547e6fd57b7}, !- Handle
  asphalt or fiberglass shingles,         !- Name
  Rough,                                  !- Roughness
  0.00635,                                !- Thickness {m}
  0.162714,                               !- Conductivity {W/m-K}
  1121.4,                                 !- Density {kg/m3}
  1465.45,                                !- Specific Heat {J/kg-K}
  0.9,                                    !- Thermal Absorptance
  0.85,                                   !- Solar Absorptance
  0.85;                                   !- Visible Absorptance

OS:Material,
  {64078f61-787a-4066-920b-3122f1cf45e4}, !- Handle
  roof stud and cavity,                   !- Name
  Rough,                                  !- Roughness
  0.0889,                                 !- Thickness {m}
  0.491900632004487,                      !- Conductivity {W/m-K}
  50.32683,                               !- Density {kg/m3}
  1063.80987585548,                       !- Specific Heat {J/kg-K}
  0.9,                                    !- Thermal Absorptance
  0.7,                                    !- Solar Absorptance
  0.7;                                    !- Visible Absorptance

OS:Material,
  {c94e1e5d-6925-4e0a-ae7e-2fe3a81ee711}, !- Handle
  gypsum board,                           !- Name
  Rough,                                  !- Roughness
  0.00254,                                !- Thickness {m}
  0.1602906,                              !- Conductivity {W/m-K}
  801,                                    !- Density {kg/m3}
  837.4,                                  !- Specific Heat {J/kg-K}
  0.9,                                    !- Thermal Absorptance
  0.6,                                    !- Solar Absorptance
  0.6;                                    !- Visible Absorptance

OS:Construction,
  {676be8f0-853a-45a7-9802-485cd1e942d3}, !- Handle
  Roof1 construction,                     !- Name
  ,                                       !- Surface Rendering Name
  {8f1403c4-8b6e-469d-b3ab-5547e6fd57b7}, !- Layer 1
  {64078f61-787a-4066-920b-3122f1cf45e4}, !- Layer 2
  {c94e1e5d-6925-4e0a-ae7e-2fe3a81ee711}; !- Layer 3

OS:Surface,
  {acd0afb0-6194-45f7-901d-4e43893e1df7}, !- Handle
  Wall1,                                  !- Name
  Wall,                                   !- Surface Type
  {97a7d436-bff0-4c9f-b5a5-f4dcc56bb1ba}, !- Construction Name
  {47131c2a-79e6-435f-976d-1f0bb371207f}, !- Space Name
  Outdoors,                               !- Outside Boundary Condition
  ,                                       !- Outside Boundary Condition Object
  SunExposed,                             !- Sun Exposure
  WindExposed,                            !- Wind Exposure
  ,                                       !- View Factor to Ground
  ,                                       !- Number of Vertices
  -50.3642317384615, 51.2932621384616, 0, !- X,Y,Z Vertex 1 {m}
  -50.3642317384615, 51.2932621384616, 2.4384, !- X,Y,Z Vertex 2 {m}
  -30.8303617384615, 51.2932621384616, 2.4384, !- X,Y,Z Vertex 3 {m}
  -30.8303617384615, 51.2932621384616, 0; !- X,Y,Z Vertex 4 {m}

OS:AdditionalProperties,
  {b6ae7307-ca44-42cb-804f-d923b9c0fc68}, !- Handle
  {acd0afb0-6194-45f7-901d-4e43893e1df7}, !- Object Name
  Length,                                 !- Feature Name 1
  Double,                                 !- Feature Data Type 1
  64.087499999999991,                     !- Feature Value 1
  Azimuth,                                !- Feature Name 2
  Integer,                                !- Feature Data Type 2
  0,                                      !- Feature Value 2
  Tilt,                                   !- Feature Name 3
  Double,                                 !- Feature Data Type 3
  90,                                     !- Feature Value 3
  SurfaceType,                            !- Feature Name 4
  String,                                 !- Feature Data Type 4
  Wall;                                   !- Feature Value 4

OS:Material,
  {fd7ab595-3701-456b-b947-c1f720a08382}, !- Handle
  wood siding,                            !- Name
  Rough,                                  !- Roughness
  0.0254,                                 !- Thickness {m}
  0.1024175,                              !- Conductivity {W/m-K}
  544.68,                                 !- Density {kg/m3}
  1172.36,                                !- Specific Heat {J/kg-K}
  0.9,                                    !- Thermal Absorptance
  0.7,                                    !- Solar Absorptance
  0.7;                                    !- Visible Absorptance

OS:Material,
  {5510a141-921b-4482-a691-9c7cb0b3cd5c}, !- Handle
  osb sheathing 0.5 in.,                  !- Name
  Rough,                                  !- Roughness
  0.0127,                                 !- Thickness {m}
  0.1154577,                              !- Conductivity {W/m-K}
  512.64,                                 !- Density {kg/m3}
  1214.23,                                !- Specific Heat {J/kg-K}
  0.9,                                    !- Thermal Absorptance
  0.7,                                    !- Solar Absorptance
  0.7;                                    !- Visible Absorptance

OS:Material,
  {3e970064-4781-4863-96e6-920d65df5687}, !- Handle
  wall stud and cavity,                   !- Name
  Rough,                                  !- Roughness
  0.1397,                                 !- Thickness {m}
  0.0929021674204099,                     !- Conductivity {W/m-K}
  139.0536,                               !- Density {kg/m3}
  1170.23755760369,                       !- Specific Heat {J/kg-K}
  0.9,                                    !- Thermal Absorptance
  0.7,                                    !- Solar Absorptance
  0.7;                                    !- Visible Absorptance

OS:Material,
  {8eefca94-3663-4bbd-89b7-b1a85ae17d99}, !- Handle
  gypsum board 1,                         !- Name
  Rough,                                  !- Roughness
  0.0127,                                 !- Thickness {m}
  0.1602906,                              !- Conductivity {W/m-K}
  801,                                    !- Density {kg/m3}
  837.4,                                  !- Specific Heat {J/kg-K}
  0.9,                                    !- Thermal Absorptance
  0.6,                                    !- Solar Absorptance
  0.6;                                    !- Visible Absorptance

OS:Construction,
  {97a7d436-bff0-4c9f-b5a5-f4dcc56bb1ba}, !- Handle
  Wall1 construction,                     !- Name
  ,                                       !- Surface Rendering Name
  {fd7ab595-3701-456b-b947-c1f720a08382}, !- Layer 1
  {5510a141-921b-4482-a691-9c7cb0b3cd5c}, !- Layer 2
  {3e970064-4781-4863-96e6-920d65df5687}, !- Layer 3
  {8eefca94-3663-4bbd-89b7-b1a85ae17d99}; !- Layer 4

OS:Surface,
  {53311093-b4e1-4b24-ac0a-56062d7eff09}, !- Handle
  Wall2,                                  !- Name
  Wall,                                   !- Surface Type
  {b0345cfc-7a17-402c-bb03-b733e39af3dc}, !- Construction Name
  {47131c2a-79e6-435f-976d-1f0bb371207f}, !- Space Name
  Outdoors,                               !- Outside Boundary Condition
  ,                                       !- Outside Boundary Condition Object
  SunExposed,                             !- Sun Exposure
  WindExposed,                            !- Wind Exposure
  ,                                       !- View Factor to Ground
  ,                                       !- Number of Vertices
  51.2932621384616, -36.1953302, 0,       !- X,Y,Z Vertex 1 {m}
  51.2932621384616, -36.1953302, 2.4384,  !- X,Y,Z Vertex 2 {m}
  51.2932621384616, -45.9641702, 2.4384,  !- X,Y,Z Vertex 3 {m}
  51.2932621384616, -45.9641702, 0;       !- X,Y,Z Vertex 4 {m}

OS:AdditionalProperties,
  {a9537ce3-6d8f-4308-8102-943ed42bb6ee}, !- Handle
  {53311093-b4e1-4b24-ac0a-56062d7eff09}, !- Object Name
  Length,                                 !- Feature Name 1
  Double,                                 !- Feature Data Type 1
  32.049999999999997,                     !- Feature Value 1
  Azimuth,                                !- Feature Name 2