
OS:Version,
  {0a0b592c-435f-4562-b4fd-0c2af07e41d1}, !- Handle
  3.10.0;                                 !- Version Identifier

OS:SimulationControl,
  {8f4b59bd-ed9a-45a2-8e82-c69b60d79cfb}, !- Handle
  ,                                       !- Do Zone Sizing Calculation
  ,                                       !- Do System Sizing Calculation
  ,                                       !- Do Plant Sizing Calculation
  No;                                     !- Run Simulation for Sizing Periods

OS:Timestep,
  {e38841d7-ba88-4f7f-929d-b0f921654332}, !- Handle
  1;                                      !- Number of Timesteps per Hour

OS:ShadowCalculation,
  {1c258d5c-5504-4784-abd6-afa8efb086db}, !- Handle
  PolygonClipping,                        !- Shading Calculation Method
  ,                                       !- Shading Calculation Update Frequency Method
  20,                                     !- Shading Calculation Update Frequency
  200,                                    !- Maximum Figures in Shadow Overlap Calculations
  ,                                       !- Polygon Clipping Algorithm
  512,                                    !- Pixel Counting Resolution
  ,                                       !- Sky Diffuse Modeling Algorithm
  No,                                     !- Output External Shading Calculation Results
  No,                                     !- Disable Self-Shading Within Shading Zone Groups
  No;                                     !- Disable Self-Shading From Shading Zone Groups to Other Zones

OS:SurfaceConvectionAlgorithm:Outside,
  {716e959a-159c-4f8a-806f-c8eba3d05a1c}, !- Handle
  DOE-2;                                  !- Algorithm

OS:SurfaceConvectionAlgorithm:Inside,
  {131edff2-cf89-4612-beb0-05a4df945e3a}, !- Handle
  TARP;                                   !- Algorithm

OS:ZoneCapacitanceMultiplier:ResearchSpecial,
  {678b8b36-d111-482f-bbc3-4a3c5c437000}, !- Handle
  7,                                      !- Temperature Capacity Multiplier
  15,                                     !- Humidity Capacity Multiplier
  ;                                       !- Carbon Dioxide Capacity Multiplier

OS:ConvergenceLimits,
  {bcd2c00c-a394-4ed9-aa7d-b8672de0d2e4}, !- Handle
  0;                                      !- Minimum System Timestep {minutes}

OS:RunPeriod,
  {b91e4e52-b23c-49b0-b5c8-1fc34539ed72}, !- Handle
  Run Period 1,                           !- Name
  1,                                      !- Begin Month
  1,                                      !- Begin Day of Month
  12,                                     !- End Month
  31,                                     !- End Day of Month
  ,                                       !- Use Weather File Holidays and Special Days
  ,                                       !- Use Weather File Daylight Saving Period
  ,                                       !- Apply Weekend Holiday Rule
  ,                                       !- Use Weather File Rain Indicators
  ,                                       !- Use Weather File Snow Indicators
  ;                                       !- Number of Times Runperiod to be Repeated

OS:PerformancePrecisionTradeoffs,
  {65979434-0fd9-4906-9838-496b73f617b9}, !- Handle
  ,                                       !- Use Coil Direct Solutions
  CarrollMRT;                             !- Zone Radiant Exchange Algorithm

OS:WeatherFile,
  {5130892d-6e81-4802-80e6-ba4e7b5fad13}, !- Handle
  Buffalo Niagara Intl Ap,                !- City
  NY,                                     !- State Province Region
  USA,                                    !- Country
  TMY3,                                   !- Data Source
  725280,                                 !- WMO Number
  42.93,                                  !- Latitude {deg}
  -78.73,                                 !- Longitude {deg}
  -5,                                     !- Time Zone {hr}
  215,                                    !- Elevation {m}
  /Users/nmoore/github/urbanopt-example-geojson-project/example_project/weather/USA_NY_Buffalo-Greater.Buffalo.Intl.AP.725280_TMY3.epw, !- Url
  6B50E0FF,                               !- Checksum
  ,                                       !- Start Date Actual Year
  Sunday;                                 !- Start Day of Week

OS:YearDescription,
  {6ee2aa40-42e9-476e-94e9-5ba32fc7e3bd}, !- Handle
  2007,                                   !- Calendar Year
  ,                                       !- Day of Week for Start Day
  ;                                       !- Is Leap Year

OS:Site,
  {19f22bd9-61bb-47b8-a351-746bb04f13e3}, !- Handle
  Buffalo Niagara Intl Ap_NY,             !- Name
  42.93,                                  !- Latitude {deg}
  -78.73,                                 !- Longitude {deg}
  -5,                                     !- Time Zone {hr}
  215,                                    !- Elevation {m}
  Suburbs,                                !- Terrain
  Yes;                                    !- Keep Site Location Information

OS:RunPeriodControl:DaylightSavingTime,
  {3a74360b-ff0d-48f0-860c-5719c6d21cdb}, !- Handle
  Mar 12,                                 !- Start Date
  Nov 5;                                  !- End Date

OS:Site:GroundTemperature:Shallow,
  {b1397a9e-a4d9-40d4-add8-d9726e95ef5d}, !- Handle
  4.30207395723828,                       !- January Surface Ground Temperature {C}
  2.29327249652502,                       !- February Surface Ground Temperature {C}
  2.13240047156047,                       !- March Surface Ground Temperature {C}
  3.08567940719286,                       !- April Surface Ground Temperature {C}
  6.91256312497526,                       !- May Surface Ground Temperature {C}
  10.7216195949507,                       !- June Surface Ground Temperature {C}
  14.0238679822574,                       !- July Surface Ground Temperature {C}
  16.1157611184724,                       !- August Surface Ground Temperature {C}
  16.2934789303462,                       !- September Surface Ground Temperature {C}
  14.5920754632847,                       !- October Surface Ground Temperature {C}
  11.374036348653,                        !- November Surface Ground Temperature {C}
  7.68182621661674;                       !- December Surface Ground Temperature {C}

OS:ThermalZone,
  {de23957b-9c32-495e-a900-6697abf50353}, !- Handle
  conditioned space,                      !- Name
  1,                                      !- Multiplier
  ,                                       !- Ceiling Height {m}
  346.03186535424,                        !- Volume {m3}
  ,                                       !- Floor Area {m2}
  ,                                       !- Zone Inside Convection Algorithm
  ,                                       !- Zone Outside Convection Algorithm
  ,                                       !- Zone Conditioning Equipment List Name
  {4bfd4d79-1b17-432f-b2bd-d516775e3744}, !- Zone Air Inlet Port List
  {740de474-348b-4aaa-a690-41b3b66b1343}, !- Zone Air Exhaust Port List
  {6e89417f-5cd0-483c-8b4b-0c7f1cc56973}, !- Zone Air Node Name
  {10afe484-5ece-41ce-8329-99a2bcf9d457}, !- Zone Return Air Port List
  ,                                       !- Primary Daylighting Control Name
  ,                                       !- Fraction of Zone Controlled by Primary Daylighting Control
  ,                                       !- Secondary Daylighting Control Name
  ,                                       !- Fraction of Zone Controlled by Secondary Daylighting Control
  ,                                       !- Illuminance Map Name
  ,                                       !- Group Rendering Name
  {24fcbf6f-fe40-4367-bc28-ee6bdf917537}, !- Thermostat Name
  No;                                     !- Use Ideal Air Loads

OS:Node,
  {7d061eb2-8640-413d-97fb-56f90fee63fe}, !- Handle
  Node 1,                                 !- Name
  {6e89417f-5cd0-483c-8b4b-0c7f1cc56973}, !- Inlet Port
  ;                                       !- Outlet Port

OS:Connection,
  {6e89417f-5cd0-483c-8b4b-0c7f1cc56973}, !- Handle
  {de23957b-9c32-495e-a900-6697abf50353}, !- Source Object
  11,                                     !- Outlet Port
  {7d061eb2-8640-413d-97fb-56f90fee63fe}, !- Target Object
  2;                                      !- Inlet Port

OS:PortList,
  {4bfd4d79-1b17-432f-b2bd-d516775e3744}, !- Handle
  {de23957b-9c32-495e-a900-6697abf50353}, !- HVAC Component
  {c9109e74-02ee-445b-a7de-7ac863a58822}; !- Port 1

OS:PortList,
  {740de474-348b-4aaa-a690-41b3b66b1343}, !- Handle
  {de23957b-9c32-495e-a900-6697abf50353}; !- HVAC Component

OS:PortList,
  {10afe484-5ece-41ce-8329-99a2bcf9d457}, !- Handle
  {de23957b-9c32-495e-a900-6697abf50353}, !- HVAC Component
  {6269bbfc-992b-435e-ab35-a7b92d5948a2}; !- Port 1

OS:Sizing:Zone,
  {5685ffec-f46b-490f-9b3b-88ac33a44b82}, !- Handle
  {de23957b-9c32-495e-a900-6697abf50353}, !- Zone or ZoneList Name
  SupplyAirTemperature,                   !- Zone Cooling Design Supply Air Temperature Input Method
  14,                                     !- Zone Cooling Design Supply Air Temperature {C}
  11.11,                                  !- Zone Cooling Design Supply Air Temperature Difference {deltaC}
  SupplyAirTemperature,                   !- Zone Heating Design Supply Air Temperature Input Method
  40,                                     !- Zone Heating Design Supply Air Temperature {C}
  11.11,                                  !- Zone Heating Design Supply Air Temperature Difference {deltaC}
  0.0085,                                 !- Zone Cooling Design Supply Air Humidity Ratio {kg-H2O/kg-air}
  0.008,                                  !- Zone Heating Design Supply Air Humidity Ratio {kg-H2O/kg-air}
  ,                                       !- Zone Heating Sizing Factor
  ,                                       !- Zone Cooling Sizing Factor
  DesignDay,                              !- Cooling Design Air Flow Method
  ,                                       !- Cooling Design Air Flow Rate {m3/s}
  ,                                       !- Cooling Minimum Air Flow per Zone Floor Area {m3/s-m2}
  ,                                       !- Cooling Minimum Air Flow {m3/s}
  ,                                       !- Cooling Minimum Air Flow Fraction
  DesignDay,                              !- Heating Design Air Flow Method
  ,                                       !- Heating Design Air Flow Rate {m3/s}
  ,                                       !- Heating Maximum Air Flow per Zone Floor Area {m3/s-m2}
  ,                                       !- Heating Maximum Air Flow {m3/s}
  ,                                       !- Heating Maximum Air Flow Fraction
  No,                                     !- Account for Dedicated Outdoor Air System
  NeutralSupplyAir,                       !- Dedicated Outdoor Air System Control Strategy
  autosize,                               !- Dedicated Outdoor Air Low Setpoint Temperature for Design {C}
  autosize,                               !- Dedicated Outdoor Air High Setpoint Temperature for Design {C}
  Sensible Load Only No Latent Load,      !- Zone Load Sizing Method
  HumidityRatioDifference,                !- Zone Latent Cooling Design Supply Air Humidity Ratio Input Method
  ,                                       !- Zone Dehumidification Design Supply Air Humidity Ratio {kgWater/kgDryAir}
  0.005,                                  !- Zone Cooling Design Supply Air Humidity Ratio Difference {kgWater/kgDryAir}
  HumidityRatioDifference,                !- Zone Latent Heating Design Supply Air Humidity Ratio Input Method
  ,                                       !- Zone Humidification Design Supply Air Humidity Ratio {kgWater/kgDryAir}
  0.005,                                  !- Zone Humidification Design Supply Air Humidity Ratio Difference {kgWater/kgDryAir}
  ,                                       !- Zone Humidistat Dehumidification Set Point Schedule Name
  ,                                       !- Zone Humidistat Humidification Set Point Schedule Name
  ,                                       !- Design Zone Air Distribution Effectiveness in Cooling Mode
  ,                                       !- Design Zone Air Distribution Effectiveness in Heating Mode
  ,                                       !- Design Zone Secondary Recirculation Fraction {dimensionless}
  ,                                       !- Design Minimum Zone Ventilation Efficiency {dimensionless}
  Coincident;                             !- Sizing Option

OS:ZoneHVAC:EquipmentList,
  {96c61300-1dd9-4805-89a3-94384c9ba051}, !- Handle
  Zone HVAC Equipment List 1,             !- Name
  {de23957b-9c32-495e-a900-6697abf50353}, !- Thermal Zone
  ,                                       !- Load Distribution Scheme
  {e26c3388-35ff-4a25-b817-6e78dca5f501}, !- Zone Equipment 1
  1,                                      !- Zone Equipment Cooling Sequence 1
  1,                                      !- Zone Equipment Heating or No-Load Sequence 1
  {9230dbcf-6c5a-4efa-8016-6975640a9168}, !- Zone Equipment Sequential Cooling Fraction Schedule Name 1
  {fbfc9339-4f86-47ed-b9fd-d247d0e458fd}; !- Zone Equipment Sequential Heating Fraction Schedule Name 1

OS:AdditionalProperties,
  {5e91d6f5-76b3-4157-90c3-6667a12caa3e}, !- Handle
  {de23957b-9c32-495e-a900-6697abf50353}, !- Object Name
  ObjectType,                             !- Feature Name 1
  String,                                 !- Feature Data Type 1
  conditioned space;                      !- Feature Value 1

OS:Space,
  {6055acc7-055d-4879-ba43-b8af6266e225}, !- Handle
  conditioned space 1,                    !- Name
  ,                                       !- Space Type Name
  ,                                       !- Default Construction Set Name
  ,                                       !- Default Schedule Set Name
  ,                                       !- Direction of Relative North {deg}
  ,                                       !- X Origin {m}
  ,                                       !- Y Origin {m}
  ,                                       !- Z Origin {m}
  ,                                       !- Building Story Name
  {de23957b-9c32-495e-a900-6697abf50353}, !- Thermal Zone Name
  ,                                       !- Part of Total Floor Area
  ,                                       !- Design Specification Outdoor Air Object Name
  ,                                       !- Building Unit Name
  346.03186535424;                        !- Volume {m3}

OS:Schedule:Ruleset,
  {7cdbcf76-a6b5-4b61-a6ee-536eb6671fd1}, !- Handle
  heating setpoint,                       !- Name
  {ba65443e-76a2-4b3e-b286-949a617bf434}, !- Schedule Type Limits Name
  {e83b24e1-cdf6-4748-ad4b-97adb88bad01}; !- Default Day Schedule Name

OS:Schedule:Day,
  {e83b24e1-cdf6-4748-ad4b-97adb88bad01}, !- Handle
  heating setpoint default day,           !- Name
  {ba65443e-76a2-4b3e-b286-949a617bf434}, !- Schedule Type Limits Name
  ,                                       !- Interpolate to Timestep
  24,                                     !- Hour 1
  0,                                      !- Minute 1
  0;                                      !- Value Until Time 1

OS:Schedule:Rule,
  {bcce9ee8-3558-4a75-aa2c-eac8ea10607e}, !- Handle
  heating setpoint allday rule,           !- Name
  {7cdbcf76-a6b5-4b61-a6ee-536eb6671fd1}, !- Schedule Ruleset Name
  0,                                      !- Rule Order
  {d6ccd267-69db-4c05-b45a-eaf8cc7eefcd}, !- Day Schedule Name
  Yes,                                    !- Apply Sunday
  Yes,                                    !- Apply Monday
  Yes,                                    !- Apply Tuesday
  Yes,                                    !- Apply Wednesday
  Yes,                                    !- Apply Thursday
  Yes,                                    !- Apply Friday
  Yes,                                    !- Apply Saturday
  DateRange,                              !- Date Specification Type
  1,                                      !- Start Month
  1,                                      !- Start Day
  12,                                     !- End Month
  31;                                     !- End Day

OS:Schedule:Day,
  {d6ccd267-69db-4c05-b45a-eaf8cc7eefcd}, !- Handle
  heating setpoint day,                   !- Name
  {ba65443e-76a2-4b3e-b286-949a617bf434}, !- Schedule Type Limits Name
  ,                                       !- Interpolate to Timestep
  24,                                     !- Hour 1
  0,                                      !- Minute 1
  20;                                     !- Value Until Time 1

OS:Schedule:Ruleset,
  {1b0dec8d-5f80-4b0c-a168-8beeed480826}, !- Handle
  cooling setpoint,                       !- Name
  {ba65443e-76a2-4b3e-b286-949a617bf434}, !- Schedule Type Limits Name
  {ae0dcfbe-91dd-49c7-83da-0aef0927e8b3}; !- Default Day Schedule Name

OS:Schedule:Day,
  {ae0dcfbe-91dd-49c7-83da-0aef0927e8b3}, !- Handle
  cooling setpoint default day,           !- Name
  {ba65443e-76a2-4b3e-b286-949a617bf434}, !- Schedule Type Limits Name
  ,                                       !- Interpolate to Timestep
  24,                                     !- Hour 1
  0,                                      !- Minute 1
  0;                                      !- Value Until Time 1

OS:Schedule:Rule,
  {a16664e3-433f-4e99-bb09-7a55d702c1b3}, !- Handle
  cooling setpoint allday rule,           !- Name
  {1b0dec8d-5f80-4b0c-a168-8beeed480826}, !- Schedule Ruleset Name
  0,                                      !- Rule Order
  {3103e7a7-374b-41f9-b5a9-620fb39797bf}, !- Day Schedule Name
  Yes,                                    !- Apply Sunday
  Yes,                                    !- Apply Monday
  Yes,                                    !- Apply Tuesday
  Yes,                                    !- Apply Wednesday
  Yes,                                    !- Apply Thursday
  Yes,                                    !- Apply Friday
  Yes,                                    !- Apply Saturday
  DateRange,                              !- Date Specification Type
  1,                                      !- Start Month
  1,                                      !- Start Day
  12,                                     !- End Month
  31;                                     !- End Day

OS:Schedule:Day,
  {3103e7a7-374b-41f9-b5a9-620fb39797bf}, !- Handle
  cooling setpoint day,                   !- Name
  {ba65443e-76a2-4b3e-b286-949a617bf434}, !- Schedule Type Limits Name
  ,                                       !- Interpolate to Timestep
  24,                                     !- Hour 1
  0,                                      !- Minute 1
  25.5555555555556;                       !- Value Until Time 1

OS:ThermostatSetpoint:DualSetpoint,
  {24fcbf6f-fe40-4367-bc28-ee6bdf917537}, !- Handle
  conditioned space temperature setpoint, !- Name
  {7cdbcf76-a6b5-4b61-a6ee-536eb6671fd1}, !- Heating Setpoint Temperature Schedule Name
  {1b0dec8d-5f80-4b0c-a168-8beeed480826}, !- Cooling Setpoint Temperature Schedule Name
  0;                                      !- Temperature Difference Between Cutout And Setpoint {deltaC}

OS:ScheduleTypeLimits,
  {ba65443e-76a2-4b3e-b286-949a617bf434}, !- Handle
  Temperature,                            !- Name
  ,                                       !- Lower Limit Value
  ,                                       !- Upper Limit Value
  Continuous,                             !- Numeric Type
  Temperature;                            !- Unit Type

OS:Surface,
  {97e2e495-1f61-4d4b-b43f-f55be926477d}, !- Handle
  Roof1,                                  !- Name
  RoofCeiling,                            !- Surface Type
  {6252a0f7-1a34-43c9-9eb4-ea2504ea1472}, !- Construction Name
  {6055acc7-055d-4879-ba43-b8af6266e225}, !- Space Name
  Outdoors,                               !- Outside Boundary Condition
  ,                                       !- Outside Boundary Condition Object
  SunExposed,                             !- Sun Exposure
  WindExposed,                            !- Wind Exposure
  ,                                       !- View Factor to Ground
  ,                                       !- Number of Vertices
  -5.95628646053898, 5.95628646053898, 2.4384, !- X,Y,Z Vertex 1 {m}
  -5.95628646053898, -5.95628646053898, 2.4384, !- X,Y,Z Vertex 2 {m}
  5.95628646053898, -5.95628646053898, 2.4384, !- X,Y,Z Vertex 3 {m}
  5.95628646053898, 5.95628646053898, 2.4384; !- X,Y,Z Vertex 4 {m}

OS:AdditionalProperties,
  {e0b9973f-9c9e-4f43-8176-864b2ac8f906}, !- Handle
  {97e2e495-1f61-4d4b-b43f-f55be926477d}, !- Object Name
  Length,                                 !- Feature Name 1
  Double,                                 !- Feature Data Type 1
  39.083244491725608,                     !- Feature Value 1
  Width,                                  !- Feature Name 2
  Double,                                 !- Feature Data Type 2
  39.083244491725608,                     !- Feature Value 2
  Azimuth,                                !- Feature Name 3
  Integer,                                !- Feature Data Type 3
  0,                                      !- Feature Value 3
  Tilt,                                   !- Feature Name 4
  Double,                                 !- Feature Data Type 4
  0,                                      !- Feature Value 4
  SurfaceType,                            !- Feature Name 5
  String,                                 !- Feature Data Type 5
  Roof;                                   !- Feature Value 5

OS:Material,
  {f6e5631a-6b42-4826-816a-3560d228ea00}, !- Handle
  asphalt or fiberglass shingles,         !- Name
  Rough,                                  !- Roughness
  0.00635,                                !- Thickness {m}
  0.162714,                               !- Conductivity {W/m-K}
  1121.4,                                 !- Density {kg/m3}
  1465.45,                                !- Specific Heat {J/kg-K}
  0.9,                                    !- Thermal Absorptance
  0.85,                                   !- Solar Absorptance
  0.85;                                   !- Visible Absorptance

OS:Material,
  {2823a385-749c-483f-aab1-54bf925c1bf3}, !- Handle
  roof stud and cavity,                   !- Name
  Rough,                                  !- Roughness
  0.0889,                                 !- Thickness {m}
  0.491900632004487,                      !- Conductivity {W/m-K}
  50.32683,                               !- Density {kg/m3}
  1063.80987585548,                       !- Specific Heat {J/kg-K}
  0.9,                                    !- Thermal Absorptance
  0.7,                                    !- Solar Absorptance
  0.7;                                    !- Visible Absorptance

OS:Material,
  {f86fcd2f-2732-4c82-a103-def6bd4c2bce}, !- Handle
  gypsum board,                           !- Name
  Rough,                                  !- Roughness
  0.00254,                                !- Thickness {m}
  0.1602906,                              !- Conductivity {W/m-K}
  801,                                    !- Density {kg/m3}
  837.4,                                  !- Specific Heat {J/kg-K}
  0.9,                                    !- Thermal Absorptance
  0.6,                                    !- Solar Absorptance
  0.6;                                    !- Visible Absorptance

OS:Construction,
  {6252a0f7-1a34-43c9-9eb4-ea2504ea1472}, !- Handle
  Roof1 construction,                     !- Name
  ,                                       !- Surface Rendering Name
  {f6e5631a-6b42-4826-816a-3560d228ea00}, !- Layer 1
  {2823a385-749c-483f-aab1-54bf925c1bf3}, !- Layer 2
  {f86fcd2f-2732-4c82-a103-def6bd4c2bce}; !- Layer 3

OS:Surface,
  {159fd601-cd04-45dc-92f2-892bcabaa05d}, !- Handle
  Wall1,                                  !- Name
  Wall,                                   !- Surface Type
  {3042711d-d525-4aaa-b084-477392fd19a4}, !- Construction Name
  {6055acc7-055d-4879-ba43-b8af6266e225}, !- Space Name
  Outdoors,                               !- Outside Boundary Condition
  ,                                       !- Outside Boundary Condition Object
  SunExposed,                             !- Sun Exposure
  WindExposed,                            !- Wind Exposure
  ,                                       !- View Factor to Ground
  ,                                       !- Number of Vertices
  -3.01645308575712, 5.40745691424288, 0, !- X,Y,Z Vertex 1 {m}
  -3.01645308575712, 5.40745691424288, 4.8768, !- X,Y,Z Vertex 2 {m}
  5.40745691424288, 5.40745691424288, 4.8768, !- X,Y,Z Vertex 3 {m}
  5.40745691424288, 5.40745691424288, 0;  !- X,Y,Z Vertex 4 {m}

OS:AdditionalProperties,
  {d97bd79b-7ae7-4f8c-816b-c1f77c7ae8e8}, !- Handle
  {159fd601-cd04-45dc-92f2-892bcabaa05d}, !- Object Name
  Length,                                 !- Feature Name 1
  Double,                                 !- Feature Data Type 1
  27.637499999999999,                     !- Feature Value 1
  Azimuth,                                !- Feature Name 2
  Integer,                                !- Feature Data Type 2
  0,                                      !- Feature Value 2
  Tilt,                                   !- Feature Name 3
  Double,                                 !- Feature Data Type 3
  90,                                     !- Feature Value 3
  SurfaceType,                            !- Feature Name 4
  String,                                 !- Feature Data Type 4
  Wall;                                   !- Feature Value 4

OS:Material,
  {cef2fc8f-7066-40ea-bd42-f5e897ec2c7d}, !- Handle
  wood siding,                            !- Name
  Rough,                                  !- Roughness
  0.0254,                                 !- Thickness {m}
  0.1024175,                              !- Conductivity {W/m-K}
  544.68,                                 !- Density {kg/m3}
  1172.36,                                !- Specific Heat {J/kg-K}
  0.9,                                    !- Thermal Absorptance
  0.7,                                    !- Solar Absorptance
  0.7;                                    !- Visible Absorptance

OS:Material,
  {99bb0a58-6799-4c07-8bf4-15b653fcce8f}, !- Handle
  osb sheathing 0.5 in.,                  !- Name
  Rough,                                  !- Roughness
  0.0127,                                 !- Thickness {m}
  0.1154577,                              !- Conductivity {W/m-K}
  512.64,                                 !- Density {kg/m3}
  1214.23,                                !- Specific Heat {J/kg-K}
  0.9,                                    !- Thermal Absorptance
  0.7,                                    !- Solar Absorptance
  0.7;                                    !- Visible Absorptance

OS:Material,
  {d2572aa4-9201-4713-82cb-3cce50a44d0d}, !- Handle
  wall stud and cavity,                   !- Name
  Rough,                                  !- Roughness
  0.1397,                                 !- Thickness {m}
  0.0929021674204099,                     !- Conductivity {W/m-K}
  139.0536,                               !- Density {kg/m3}
  1170.23755760369,                       !- Specific Heat {J/kg-K}
  0.9,                                    !- Thermal Absorptance
  0.7,                                    !- Solar Absorptance
  0.7;                                    !- Visible Absorptance

OS:Material,
  {fe950e45-8364-4ecd-89c7-7101e10ca7d0}, !- Handle
  gypsum board 1,                         !- Name
  Rough,                                  !- Roughness
  0.0127,                                 !- Thickness {m}
  0.1602906,                              !- Conductivity {W/m-K}
  801,                                    !- Density {kg/m3}
  837.4,                                  !- Specific Heat {J/kg-K}
  0.9,                                    !- Thermal Absorptance
  0.6,                                    !- Solar Absorptance
  0.6;                                    !- Visible Absorptance

OS:Construction,
  {3042711d-d525-4aaa-b084-477392fd19a4}, !- Handle
  Wall1 construction,                     !- Name
  ,                                       !- Surface Rendering Name
  {cef2fc8f-7066-40ea-bd42-f5e897ec2c7d}, !- Layer 1
  {99bb0a58-6799-4c07-8bf4-15b653fcce8f}, !- Layer 2
  {d2572aa4-9201-4713-82cb-3cce50a44d0d}, !- Layer 3
  {fe950e45-8364-4ecd-89c7-7101e10ca7d0}; !- Layer 4

OS:Surface,
  {a3e9e549-c7d4-4fce-93ed-d5d7de91bf3a}, !- Handle
  Wall2,                                  !- Name
  Wall,                                   !- Surface Type
  {dbb67b83-29f3-4e24-8414-2457577ecbcd}, !- Construction Name
  {6055acc7-055d-4879-ba43-b8af6266e225}, !- Space Name
  Outdoors,                               !- Outside Boundary Condition
  ,                                       !- Outside Boundary Condition Object
  SunExposed,                             !- Sun Exposure
  WindExposed,                            !- Wind Exposure
  ,                                       !- View Factor to Ground
  ,                                       !- Number of Vertices
  5.40745691424288, -1.19550191424288, 0, !- X,Y,Z Vertex 1 {m}
  5.40745691424288, -1.19550191424288, 4.8768, !- X,Y,Z Vertex 2 {m}
  5.40745691424288, -5.40745691424288, 4.8768, !- X,Y,Z Vertex 3 {m}
  5.40745691424288, -5.40745691424288, 0; !- X,Y,Z Vertex 4 {m}

OS:AdditionalProperties,
  {af248e65-b986-42f2-a2c6-1e045c92711a}, !- Handle
  {a3e9e549-c7d4-4fce-93ed-d5d7de91bf3a}, !- Object Name
  Length,                                 !- Feature Name 1
  Double,                                 !- Feature Data Type 1
  13.81875,                               !- Feature Value 1
  Azimuth,                                !- Feature Name 2