
OS:Version,
  {1f8d4218-dd34-44f6-98d9-3be06162bf09}, !- Handle
  3.9.0;                                  !- Version Identifier

OS:SimulationControl,
  {ae47d683-9a21-4f3f-b5a4-85bc0e3cfc86}, !- Handle
  ,                                       !- Do Zone Sizing Calculation
  ,                                       !- Do System Sizing Calculation
  ,                                       !- Do Plant Sizing Calculation
  No;                                     !- Run Simulation for Sizing Periods

OS:Timestep,
  {adb00cb4-df0b-46c0-bead-9375f79b2ca2}, !- Handle
  1;                                      !- Number of Timesteps per Hour

OS:ShadowCalculation,
  {738454b6-24bc-43b2-a8d5-15cfb535ac3b}, !- Handle
  PolygonClipping,                        !- Shading Calculation Method
  ,                                       !- Shading Calculation Update Frequency Method
  20,                                     !- Shading Calculation Update Frequency
  200,                                    !- Maximum Figures in Shadow Overlap Calculations
  ,                                       !- Polygon Clipping Algorithm
  512,                                    !- Pixel Counting Resolution
  ,                                       !- Sky Diffuse Modeling Algorithm
  No,                                     !- Output External Shading Calculation Results
  No,                                     !- Disable Self-Shading Within Shading Zone Groups
  No;                                     !- Disable Self-Shading From Shading Zone Groups to Other Zones

OS:SurfaceConvectionAlgorithm:Outside,
  {cbfa6124-dc1a-4060-b8e6-6fa2768b465f}, !- Handle
  DOE-2;                                  !- Algorithm

OS:SurfaceConvectionAlgorithm:Inside,
  {90e95f44-d5de-4e82-b862-8b451c1233bf}, !- Handle
  TARP;                                   !- Algorithm

OS:ZoneCapacitanceMultiplier:ResearchSpecial,
  {a8845edb-7a15-46c0-954b-03989e445a51}, !- Handle
  7,                                      !- Temperature Capacity Multiplier
  15,                                     !- Humidity Capacity Multiplier
  ;                                       !- Carbon Dioxide Capacity Multiplier

OS:ConvergenceLimits,
  {95d874a3-499f-4947-8a27-aec788aea392}, !- Handle
  0;                                      !- Minimum System Timestep {minutes}

OS:RunPeriod,
  {d888e677-edd7-434a-9655-573d7e328241}, !- Handle
  Run Period 1,                           !- Name
  1,                                      !- Begin Month
  1,                                      !- Begin Day of Month
  12,                                     !- End Month
  31,                                     !- End Day of Month
  ,                                       !- Use Weather File Holidays and Special Days
  ,                                       !- Use Weather File Daylight Saving Period
  ,                                       !- Apply Weekend Holiday Rule
  ,                                       !- Use Weather File Rain Indicators
  ,                                       !- Use Weather File Snow Indicators
  ;                                       !- Number of Times Runperiod to be Repeated

OS:PerformancePrecisionTradeoffs,
  {e74a2e3b-fdd6-411b-a2da-8eb5705540d3}, !- Handle
  ,                                       !- Use Coil Direct Solutions
  CarrollMRT;                             !- Zone Radiant Exchange Algorithm

OS:WeatherFile,
  {4b51ffa5-e600-4542-93ef-dea5b37f0762}, !- Handle
  Buffalo Niagara Intl Ap,                !- City
  NY,                                     !- State Province Region
  USA,                                    !- Country
  TMY3,                                   !- Data Source
  725280,                                 !- WMO Number
  42.93,                                  !- Latitude {deg}
  -78.73,                                 !- Longitude {deg}
  -5,                                     !- Time Zone {hr}
  215,                                    !- Elevation {m}
  /Users/nmoore/github/urbanopt-example-geojson-project/example_project/weather/USA_NY_Buffalo-Greater.Buffalo.Intl.AP.725280_TMY3.epw, !- Url
  6B50E0FF,                               !- Checksum
  ,                                       !- Start Date Actual Year
  Sunday;                                 !- Start Day of Week

OS:YearDescription,
  {af19440f-88fd-46fc-a581-d737cb5080ec}, !- Handle
  2007,                                   !- Calendar Year
  ,                                       !- Day of Week for Start Day
  ;                                       !- Is Leap Year

OS:Site,
  {78ddef2d-5ed7-4bbe-9b02-191a9510f128}, !- Handle
  Buffalo Niagara Intl Ap_NY,             !- Name
  42.93,                                  !- Latitude {deg}
  -78.73,                                 !- Longitude {deg}
  -5,                                     !- Time Zone {hr}
  215,                                    !- Elevation {m}
  Suburbs,                                !- Terrain
  Yes;                                    !- Keep Site Location Information

OS:RunPeriodControl:DaylightSavingTime,
  {b3fa3cf2-fe76-4ef2-a274-950df2127753}, !- Handle
  Mar 12,                                 !- Start Date
  Nov 5;                                  !- End Date

OS:Site:GroundTemperature:Shallow,
  {d63aa7bd-222c-43d9-bedb-20dbe82823aa}, !- Handle
  4.30207395723828,                       !- January Surface Ground Temperature {C}
  2.29327249652502,                       !- February Surface Ground Temperature {C}
  2.13240047156047,                       !- March Surface Ground Temperature {C}
  3.08567940719286,                       !- April Surface Ground Temperature {C}
  6.91256312497526,                       !- May Surface Ground Temperature {C}
  10.7216195949507,                       !- June Surface Ground Temperature {C}
  14.0238679822574,                       !- July Surface Ground Temperature {C}
  16.1157611184724,                       !- August Surface Ground Temperature {C}
  16.2934789303462,                       !- September Surface Ground Temperature {C}
  14.5920754632847,                       !- October Surface Ground Temperature {C}
  11.374036348653,                        !- November Surface Ground Temperature {C}
  7.68182621661674;                       !- December Surface Ground Temperature {C}

OS:ThermalZone,
  {7316a322-d4c9-4f7b-97a1-031541bddebf}, !- Handle
  conditioned space,                      !- Name
  1,                                      !- Multiplier
  ,                                       !- Ceiling Height {m}
  346.03186535424,                        !- Volume {m3}
  ,                                       !- Floor Area {m2}
  ,                                       !- Zone Inside Convection Algorithm
  ,                                       !- Zone Outside Convection Algorithm
  ,                                       !- Zone Conditioning Equipment List Name
  {c770bb0c-009b-4f81-bfa4-d9afb46d931b}, !- Zone Air Inlet Port List
  {9d20c1ab-3265-43ef-beb5-481914dd185b}, !- Zone Air Exhaust Port List
  {6fccf053-885f-47b5-8554-5d364be486f8}, !- Zone Air Node Name
  {3c57a9fe-f252-4696-a5a9-ced57ac0ddc9}, !- Zone Return Air Port List
  ,                                       !- Primary Daylighting Control Name
  ,                                       !- Fraction of Zone Controlled by Primary Daylighting Control
  ,                                       !- Secondary Daylighting Control Name
  ,                                       !- Fraction of Zone Controlled by Secondary Daylighting Control
  ,                                       !- Illuminance Map Name
  ,                                       !- Group Rendering Name
  {0e3c314a-878b-4270-8617-2aa4a493ddb1}, !- Thermostat Name
  No;                                     !- Use Ideal Air Loads

OS:Node,
  {2931bc7c-4631-4b68-892e-23b2b832f342}, !- Handle
  Node 1,                                 !- Name
  {6fccf053-885f-47b5-8554-5d364be486f8}, !- Inlet Port
  ;                                       !- Outlet Port

OS:Connection,
  {6fccf053-885f-47b5-8554-5d364be486f8}, !- Handle
  {7316a322-d4c9-4f7b-97a1-031541bddebf}, !- Source Object
  11,                                     !- Outlet Port
  {2931bc7c-4631-4b68-892e-23b2b832f342}, !- Target Object
  2;                                      !- Inlet Port

OS:PortList,
  {c770bb0c-009b-4f81-bfa4-d9afb46d931b}, !- Handle
  {7316a322-d4c9-4f7b-97a1-031541bddebf}, !- HVAC Component
  {cafe8a76-61bd-4557-816d-5b064d242fc6}; !- Port 1

OS:PortList,
  {9d20c1ab-3265-43ef-beb5-481914dd185b}, !- Handle
  {7316a322-d4c9-4f7b-97a1-031541bddebf}; !- HVAC Component

OS:PortList,
  {3c57a9fe-f252-4696-a5a9-ced57ac0ddc9}, !- Handle
  {7316a322-d4c9-4f7b-97a1-031541bddebf}, !- HVAC Component
  {cbcad8a7-ff01-4d56-8a23-450a4cee2ee9}; !- Port 1

OS:Sizing:Zone,
  {07a6d032-2a37-4114-840d-fdce873a6ece}, !- Handle
  {7316a322-d4c9-4f7b-97a1-031541bddebf}, !- Zone or ZoneList Name
  SupplyAirTemperature,                   !- Zone Cooling Design Supply Air Temperature Input Method
  14,                                     !- Zone Cooling Design Supply Air Temperature {C}
  11.11,                                  !- Zone Cooling Design Supply Air Temperature Difference {deltaC}
  SupplyAirTemperature,                   !- Zone Heating Design Supply Air Temperature Input Method
  40,                                     !- Zone Heating Design Supply Air Temperature {C}
  11.11,                                  !- Zone Heating Design Supply Air Temperature Difference {deltaC}
  0.0085,                                 !- Zone Cooling Design Supply Air Humidity Ratio {kg-H2O/kg-air}
  0.008,                                  !- Zone Heating Design Supply Air Humidity Ratio {kg-H2O/kg-air}
  ,                                       !- Zone Heating Sizing Factor
  ,                                       !- Zone Cooling Sizing Factor
  DesignDay,                              !- Cooling Design Air Flow Method
  ,                                       !- Cooling Design Air Flow Rate {m3/s}
  ,                                       !- Cooling Minimum Air Flow per Zone Floor Area {m3/s-m2}
  ,                                       !- Cooling Minimum Air Flow {m3/s}
  ,                                       !- Cooling Minimum Air Flow Fraction
  DesignDay,                              !- Heating Design Air Flow Method
  ,                                       !- Heating Design Air Flow Rate {m3/s}
  ,                                       !- Heating Maximum Air Flow per Zone Floor Area {m3/s-m2}
  ,                                       !- Heating Maximum Air Flow {m3/s}
  ,                                       !- Heating Maximum Air Flow Fraction
  No,                                     !- Account for Dedicated Outdoor Air System
  NeutralSupplyAir,                       !- Dedicated Outdoor Air System Control Strategy
  autosize,                               !- Dedicated Outdoor Air Low Setpoint Temperature for Design {C}
  autosize,                               !- Dedicated Outdoor Air High Setpoint Temperature for Design {C}
  Sensible Load Only No Latent Load,      !- Zone Load Sizing Method
  HumidityRatioDifference,                !- Zone Latent Cooling Design Supply Air Humidity Ratio Input Method
  ,                                       !- Zone Dehumidification Design Supply Air Humidity Ratio {kgWater/kgDryAir}
  0.005,                                  !- Zone Cooling Design Supply Air Humidity Ratio Difference {kgWater/kgDryAir}
  HumidityRatioDifference,                !- Zone Latent Heating Design Supply Air Humidity Ratio Input Method
  ,                                       !- Zone Humidification Design Supply Air Humidity Ratio {kgWater/kgDryAir}
  0.005,                                  !- Zone Humidification Design Supply Air Humidity Ratio Difference {kgWater/kgDryAir}
  ,                                       !- Zone Humidistat Dehumidification Set Point Schedule Name
  ,                                       !- Zone Humidistat Humidification Set Point Schedule Name
  ,                                       !- Design Zone Air Distribution Effectiveness in Cooling Mode
  ,                                       !- Design Zone Air Distribution Effectiveness in Heating Mode
  ,                                       !- Design Zone Secondary Recirculation Fraction {dimensionless}
  ,                                       !- Design Minimum Zone Ventilation Efficiency {dimensionless}
  Coincident;                             !- Sizing Option

OS:ZoneHVAC:EquipmentList,
  {82e43310-91c0-4700-8163-d0b6678e8616}, !- Handle
  Zone HVAC Equipment List 1,             !- Name
  {7316a322-d4c9-4f7b-97a1-031541bddebf}, !- Thermal Zone
  ,                                       !- Load Distribution Scheme
  {db3176aa-457a-4ead-bf28-f90fa868e5e9}, !- Zone Equipment 1
  1,                                      !- Zone Equipment Cooling Sequence 1
  1,                                      !- Zone Equipment Heating or No-Load Sequence 1
  {3f29fcc6-aa48-4184-b8f5-396ba0858b79}, !- Zone Equipment Sequential Cooling Fraction Schedule Name 1
  {481c9dee-b9a8-4023-a2c7-8b3067886d1d}; !- Zone Equipment Sequential Heating Fraction Schedule Name 1

OS:AdditionalProperties,
  {0d4b646e-74b3-4090-aec1-8f9f7a727bc9}, !- Handle
  {7316a322-d4c9-4f7b-97a1-031541bddebf}, !- Object Name
  ObjectType,                             !- Feature Name 1
  String,                                 !- Feature Data Type 1
  conditioned space;                      !- Feature Value 1

OS:Space,
  {125835fd-b6c7-48d6-8706-e29d08591ae5}, !- Handle
  conditioned space 1,                    !- Name
  ,                                       !- Space Type Name
  ,                                       !- Default Construction Set Name
  ,                                       !- Default Schedule Set Name
  ,                                       !- Direction of Relative North {deg}
  ,                                       !- X Origin {m}
  ,                                       !- Y Origin {m}
  ,                                       !- Z Origin {m}
  ,                                       !- Building Story Name
  {7316a322-d4c9-4f7b-97a1-031541bddebf}, !- Thermal Zone Name
  ,                                       !- Part of Total Floor Area
  ,                                       !- Design Specification Outdoor Air Object Name
  ,                                       !- Building Unit Name
  346.03186535424;                        !- Volume {m3}

OS:Schedule:Ruleset,
  {9ef1c07b-bb95-42c6-90a6-a8b5cefb6566}, !- Handle
  heating setpoint,                       !- Name
  {d7f7e8e3-c581-49f6-82ef-cd92fb8ee743}, !- Schedule Type Limits Name
  {349db009-b760-4d23-8abd-3e5e22b199e0}; !- Default Day Schedule Name

OS:Schedule:Day,
  {349db009-b760-4d23-8abd-3e5e22b199e0}, !- Handle
  heating setpoint default day,           !- Name
  {d7f7e8e3-c581-49f6-82ef-cd92fb8ee743}, !- Schedule Type Limits Name
  ,                                       !- Interpolate to Timestep
  24,                                     !- Hour 1
  0,                                      !- Minute 1
  0;                                      !- Value Until Time 1

OS:Schedule:Rule,
  {8f3675f1-defe-4988-a02c-6da4e7876d00}, !- Handle
  heating setpoint allday rule,           !- Name
  {9ef1c07b-bb95-42c6-90a6-a8b5cefb6566}, !- Schedule Ruleset Name
  0,                                      !- Rule Order
  {ffc6b328-1bf4-48d4-ae44-faa5802600cc}, !- Day Schedule Name
  Yes,                                    !- Apply Sunday
  Yes,                                    !- Apply Monday
  Yes,                                    !- Apply Tuesday
  Yes,                                    !- Apply Wednesday
  Yes,                                    !- Apply Thursday
  Yes,                                    !- Apply Friday
  Yes,                                    !- Apply Saturday
  DateRange,                              !- Date Specification Type
  1,                                      !- Start Month
  1,                                      !- Start Day
  12,                                     !- End Month
  31;                                     !- End Day

OS:Schedule:Day,
  {ffc6b328-1bf4-48d4-ae44-faa5802600cc}, !- Handle
  heating setpoint day,                   !- Name
  {d7f7e8e3-c581-49f6-82ef-cd92fb8ee743}, !- Schedule Type Limits Name
  ,                                       !- Interpolate to Timestep
  24,                                     !- Hour 1
  0,                                      !- Minute 1
  20;                                     !- Value Until Time 1

OS:Schedule:Ruleset,
  {48c7f788-b990-4952-9f8d-4c1e2d602ada}, !- Handle
  cooling setpoint,                       !- Name
  {d7f7e8e3-c581-49f6-82ef-cd92fb8ee743}, !- Schedule Type Limits Name
  {cb63c80b-c34c-4042-93bc-6e191f114e0a}; !- Default Day Schedule Name

OS:Schedule:Day,
  {cb63c80b-c34c-4042-93bc-6e191f114e0a}, !- Handle
  cooling setpoint default day,           !- Name
  {d7f7e8e3-c581-49f6-82ef-cd92fb8ee743}, !- Schedule Type Limits Name
  ,                                       !- Interpolate to Timestep
  24,                                     !- Hour 1
  0,                                      !- Minute 1
  0;                                      !- Value Until Time 1

OS:Schedule:Rule,
  {b00bd6d7-1547-4ab6-b2e1-383459810e13}, !- Handle
  cooling setpoint allday rule,           !- Name
  {48c7f788-b990-4952-9f8d-4c1e2d602ada}, !- Schedule Ruleset Name
  0,                                      !- Rule Order
  {848cfd16-000d-433a-821f-48991e529fac}, !- Day Schedule Name
  Yes,                                    !- Apply Sunday
  Yes,                                    !- Apply Monday
  Yes,                                    !- Apply Tuesday
  Yes,                                    !- Apply Wednesday
  Yes,                                    !- Apply Thursday
  Yes,                                    !- Apply Friday
  Yes,                                    !- Apply Saturday
  DateRange,                              !- Date Specification Type
  1,                                      !- Start Month
  1,                                      !- Start Day
  12,                                     !- End Month
  31;                                     !- End Day

OS:Schedule:Day,
  {848cfd16-000d-433a-821f-48991e529fac}, !- Handle
  cooling setpoint day,                   !- Name
  {d7f7e8e3-c581-49f6-82ef-cd92fb8ee743}, !- Schedule Type Limits Name
  ,                                       !- Interpolate to Timestep
  24,                                     !- Hour 1
  0,                                      !- Minute 1
  25.5555555555556;                       !- Value Until Time 1

OS:ThermostatSetpoint:DualSetpoint,
  {0e3c314a-878b-4270-8617-2aa4a493ddb1}, !- Handle
  conditioned space temperature setpoint, !- Name
  {9ef1c07b-bb95-42c6-90a6-a8b5cefb6566}, !- Heating Setpoint Temperature Schedule Name
  {48c7f788-b990-4952-9f8d-4c1e2d602ada}, !- Cooling Setpoint Temperature Schedule Name
  0;                                      !- Temperature Difference Between Cutout And Setpoint {deltaC}

OS:ScheduleTypeLimits,
  {d7f7e8e3-c581-49f6-82ef-cd92fb8ee743}, !- Handle
  Temperature,                            !- Name
  ,                                       !- Lower Limit Value
  ,                                       !- Upper Limit Value
  Continuous,                             !- Numeric Type
  Temperature;                            !- Unit Type

OS:Surface,
  {f494205c-5bf6-453e-b1cb-11c67d931c1d}, !- Handle
  Roof1,                                  !- Name
  RoofCeiling,                            !- Surface Type
  {c2383aa8-31b5-43c3-a27f-748e726d43b4}, !- Construction Name
  {125835fd-b6c7-48d6-8706-e29d08591ae5}, !- Space Name
  Outdoors,                               !- Outside Boundary Condition
  ,                                       !- Outside Boundary Condition Object
  SunExposed,                             !- Sun Exposure
  WindExposed,                            !- Wind Exposure
  ,                                       !- View Factor to Ground
  ,                                       !- Number of Vertices
  -5.95628646053898, 5.95628646053898, 2.4384, !- X,Y,Z Vertex 1 {m}
  -5.95628646053898, -5.95628646053898, 2.4384, !- X,Y,Z Vertex 2 {m}
  5.95628646053898, -5.95628646053898, 2.4384, !- X,Y,Z Vertex 3 {m}
  5.95628646053898, 5.95628646053898, 2.4384; !- X,Y,Z Vertex 4 {m}

OS:AdditionalProperties,
  {c1ab253b-ce26-445f-8904-9d68b4e568f2}, !- Handle
  {f494205c-5bf6-453e-b1cb-11c67d931c1d}, !- Object Name
  Length,                                 !- Feature Name 1
  Double,                                 !- Feature Data Type 1
  39.083244491725608,                     !- Feature Value 1
  Width,                                  !- Feature Name 2
  Double,                                 !- Feature Data Type 2
  39.083244491725608,                     !- Feature Value 2
  Azimuth,                                !- Feature Name 3
  Integer,                                !- Feature Data Type 3
  0,                                      !- Feature Value 3
  Tilt,                                   !- Feature Name 4
  Double,                                 !- Feature Data Type 4
  0,                                      !- Feature Value 4
  SurfaceType,                            !- Feature Name 5
  String,                                 !- Feature Data Type 5
  Roof;                                   !- Feature Value 5

OS:Material,
  {4c632397-5afe-4aad-8f99-78136ebde717}, !- Handle
  asphalt or fiberglass shingles,         !- Name
  Rough,                                  !- Roughness
  0.00635,                                !- Thickness {m}
  0.162714,                               !- Conductivity {W/m-K}
  1121.4,                                 !- Density {kg/m3}
  1465.45,                                !- Specific Heat {J/kg-K}
  0.9,                                    !- Thermal Absorptance
  0.85,                                   !- Solar Absorptance
  0.85;                                   !- Visible Absorptance

OS:Material,
  {7508b4fc-7300-4c11-a3a3-8d819a5131ea}, !- Handle
  roof stud and cavity,                   !- Name
  Rough,                                  !- Roughness
  0.0889,                                 !- Thickness {m}
  0.491900632004487,                      !- Conductivity {W/m-K}
  50.32683,                               !- Density {kg/m3}
  1063.80987585548,                       !- Specific Heat {J/kg-K}
  0.9,                                    !- Thermal Absorptance
  0.7,                                    !- Solar Absorptance
  0.7;                                    !- Visible Absorptance

OS:Material,
  {8f52f314-a477-4d4f-8110-fe12e271a29b}, !- Handle
  gypsum board,                           !- Name
  Rough,                                  !- Roughness
  0.00254,                                !- Thickness {m}
  0.1602906,                              !- Conductivity {W/m-K}
  801,                                    !- Density {kg/m3}
  837.4,                                  !- Specific Heat {J/kg-K}
  0.9,                                    !- Thermal Absorptance
  0.6,                                    !- Solar Absorptance
  0.6;                                    !- Visible Absorptance

OS:Construction,
  {c2383aa8-31b5-43c3-a27f-748e726d43b4}, !- Handle
  Roof1 construction,                     !- Name
  ,                                       !- Surface Rendering Name
  {4c632397-5afe-4aad-8f99-78136ebde717}, !- Layer 1
  {7508b4fc-7300-4c11-a3a3-8d819a5131ea}, !- Layer 2
  {8f52f314-a477-4d4f-8110-fe12e271a29b}; !- Layer 3

OS:Surface,
  {4674ae86-ae53-4cad-8006-58fa72ff0fea}, !- Handle
  Wall1,                                  !- Name
  Wall,                                   !- Surface Type
  {272ea3b3-fb2b-477e-8a19-1c0fa616ed94}, !- Construction Name
  {125835fd-b6c7-48d6-8706-e29d08591ae5}, !- Space Name
  Outdoors,                               !- Outside Boundary Condition
  ,                                       !- Outside Boundary Condition Object
  SunExposed,                             !- Sun Exposure
  WindExposed,                            !- Wind Exposure
  ,                                       !- View Factor to Ground
  ,                                       !- Number of Vertices
  -3.01645308575712, 5.40745691424288, 0, !- X,Y,Z Vertex 1 {m}
  -3.01645308575712, 5.40745691424288, 4.8768, !- X,Y,Z Vertex 2 {m}
  5.40745691424288, 5.40745691424288, 4.8768, !- X,Y,Z Vertex 3 {m}
  5.40745691424288, 5.40745691424288, 0;  !- X,Y,Z Vertex 4 {m}

OS:AdditionalProperties,
  {dcc7f7c3-6b5c-40de-b136-2bd5f49c7708}, !- Handle
  {4674ae86-ae53-4cad-8006-58fa72ff0fea}, !- Object Name
  Length,                                 !- Feature Name 1
  Double,                                 !- Feature Data Type 1
  27.637499999999999,                     !- Feature Value 1
  Azimuth,                                !- Feature Name 2
  Integer,                                !- Feature Data Type 2
  0,                                      !- Feature Value 2
  Tilt,                                   !- Feature Name 3
  Double,                                 !- Feature Data Type 3
  90,                                     !- Feature Value 3
  SurfaceType,                            !- Feature Name 4
  String,                                 !- Feature Data Type 4
  Wall;                                   !- Feature Value 4

OS:Material,
  {106b1a65-7377-4b57-a103-e98900ed604a}, !- Handle
  wood siding,                            !- Name
  Rough,                                  !- Roughness
  0.0254,                                 !- Thickness {m}
  0.1024175,                              !- Conductivity {W/m-K}
  544.68,                                 !- Density {kg/m3}
  1172.36,                                !- Specific Heat {J/kg-K}
  0.9,                                    !- Thermal Absorptance
  0.7,                                    !- Solar Absorptance
  0.7;                                    !- Visible Absorptance

OS:Material,
  {a8c05479-4bb2-4067-99f0-b63aeb2488a9}, !- Handle
  osb sheathing 0.5 in.,                  !- Name
  Rough,                                  !- Roughness
  0.0127,                                 !- Thickness {m}
  0.1154577,                              !- Conductivity {W/m-K}
  512.64,                                 !- Density {kg/m3}
  1214.23,                                !- Specific Heat {J/kg-K}
  0.9,                                    !- Thermal Absorptance
  0.7,                                    !- Solar Absorptance
  0.7;                                    !- Visible Absorptance

OS:Material,
  {552ef2d0-bbd0-4d38-a83f-c2f13d0fcd5d}, !- Handle
  wall stud and cavity,                   !- Name
  Rough,                                  !- Roughness
  0.1397,                                 !- Thickness {m}
  0.0929021674204099,                     !- Conductivity {W/m-K}
  139.0536,                               !- Density {kg/m3}
  1170.23755760369,                       !- Specific Heat {J/kg-K}
  0.9,                                    !- Thermal Absorptance
  0.7,                                    !- Solar Absorptance
  0.7;                                    !- Visible Absorptance

OS:Material,
  {a8cb1e1d-ad25-4de8-8abd-d211a092833e}, !- Handle
  gypsum board 1,                         !- Name
  Rough,                                  !- Roughness
  0.0127,                                 !- Thickness {m}
  0.1602906,                              !- Conductivity {W/m-K}
  801,                                    !- Density {kg/m3}
  837.4,                                  !- Specific Heat {J/kg-K}
  0.9,                                    !- Thermal Absorptance
  0.6,                                    !- Solar Absorptance
  0.6;                                    !- Visible Absorptance

OS:Construction,
  {272ea3b3-fb2b-477e-8a19-1c0fa616ed94}, !- Handle
  Wall1 construction,                     !- Name
  ,                                       !- Surface Rendering Name
  {106b1a65-7377-4b57-a103-e98900ed604a}, !- Layer 1
  {a8c05479-4bb2-4067-99f0-b63aeb2488a9}, !- Layer 2
  {552ef2d0-bbd0-4d38-a83f-c2f13d0fcd5d}, !- Layer 3
  {a8cb1e1d-ad25-4de8-8abd-d211a092833e}; !- Layer 4

OS:Surface,
  {a1345a2c-1159-40b4-b910-5c7c70088f03}, !- Handle
  Wall2,                                  !- Name
  Wall,                                   !- Surface Type
  {c15b4b92-d84c-473a-938f-8019cf33a7af}, !- Construction Name
  {125835fd-b6c7-48d6-8706-e29d08591ae5}, !- Space Name
  Outdoors,                               !- Outside Boundary Condition
  ,                                       !- Outside Boundary Condition Object
  SunExposed,                             !- Sun Exposure
  WindExposed,                            !- Wind Exposure
  ,                                       !- View Factor to Ground
  ,                                       !- Number of Vertices
  5.40745691424288, -1.19550191424288, 0, !- X,Y,Z Vertex 1 {m}
  5.40745691424288, -1.19550191424288, 4.8768, !- X,Y,Z Vertex 2 {m}
  5.40745691424288, -5.40745691424288, 4.8768, !- X,Y,Z Vertex 3 {m}
  5.40745691424288, -5.40745691424288, 0; !- X,Y,Z Vertex 4 {m}

OS:AdditionalProperties,
  {84632449-d8e5-4a2d-9d8c-520f1056c7d3}, !- Handle
  {a1345a2c-1159-40b4-b910-5c7c70088f03}, !- Object Name
  Length,                                 !- Feature Name 1
  Double,                                 !- Feature Data Type 1
  13.81875,                               !- Feature Value 1
  Azimuth,                                !- Feature Name 2