
OS:Version,
  {38e4154b-30a1-4fd8-a370-52b7057ce4a5}, !- Handle
  3.9.0;                                  !- Version Identifier

OS:ConvergenceLimits,
  {f3f93588-43e6-4a41-8993-ef07af6923a7}, !- Handle
  0;                                      !- Minimum System Timestep {minutes}

OS:Foundation:Kiva:Settings,
  {5e814183-36f2-46a8-a858-75038094665e}, !- Handle
  1.731,                                  !- Soil Conductivity {W/m-K}
  1842.3,                                 !- Soil Density {kg/m3}
  418.7,                                  !- Soil Specific Heat {J/kg-K}
  0.9,                                    !- Ground Solar Absorptivity {dimensionless}
  0.9,                                    !- Ground Thermal Absorptivity {dimensionless}
  0.03,                                   !- Ground Surface Roughness {m}
  40,                                     !- Far-Field Width {m}
  ZeroFlux,                               !- Deep-Ground Boundary Condition
  40,                                     !- Deep-Ground Depth {m}
  0.2,                                    !- Minimum Cell Dimension {m}
  3,                                      !- Maximum Cell Growth Coefficient {dimensionless}
  Timestep;                               !- Simulation Timestep

OS:PerformancePrecisionTradeoffs,
  {daf3ac8e-25c9-4ffe-90b3-1186e05035ec}, !- Handle
  ,                                       !- Use Coil Direct Solutions
  CarrollMRT;                             !- Zone Radiant Exchange Algorithm

OS:RunPeriod,
  {3d565d15-0516-4ed9-8140-d0ac27aee3b5}, !- Handle
  unit1_Run_Period_1,                     !- Name
  1,                                      !- Begin Month
  1,                                      !- Begin Day of Month
  12,                                     !- End Month
  31,                                     !- End Day of Month
  ,                                       !- Use Weather File Holidays and Special Days
  ,                                       !- Use Weather File Daylight Saving Period
  ,                                       !- Apply Weekend Holiday Rule
  ,                                       !- Use Weather File Rain Indicators
  ,                                       !- Use Weather File Snow Indicators
  ;                                       !- Number of Times Runperiod to be Repeated

OS:RunPeriodControl:DaylightSavingTime,
  {8d2af8be-6f7a-46c9-b0f1-bf86277b20d0}, !- Handle
  Mar 12,                                 !- Start Date
  Nov 5;                                  !- End Date

OS:ShadowCalculation,
  {542af1e4-05d3-48a2-8a89-b7f0acbfba88}, !- Handle
  PolygonClipping,                        !- Shading Calculation Method
  ,                                       !- Shading Calculation Update Frequency Method
  20,                                     !- Shading Calculation Update Frequency
  200,                                    !- Maximum Figures in Shadow Overlap Calculations
  ,                                       !- Polygon Clipping Algorithm
  512,                                    !- Pixel Counting Resolution
  ,                                       !- Sky Diffuse Modeling Algorithm
  No,                                     !- Output External Shading Calculation Results
  No,                                     !- Disable Self-Shading Within Shading Zone Groups
  No;                                     !- Disable Self-Shading From Shading Zone Groups to Other Zones

OS:SimulationControl,
  {aa9c33f8-7f55-4655-bff7-7ddc860f7508}, !- Handle
  ,                                       !- Do Zone Sizing Calculation
  ,                                       !- Do System Sizing Calculation
  ,                                       !- Do Plant Sizing Calculation
  No;                                     !- Run Simulation for Sizing Periods

OS:Site,
  {c8fb72e1-38e5-4002-ad94-1d19b2908500}, !- Handle
  unit1_Buffalo_Niagara_Intl_Ap_NY,       !- Name
  42.93,                                  !- Latitude {deg}
  -78.73,                                 !- Longitude {deg}
  -5,                                     !- Time Zone {hr}
  215,                                    !- Elevation {m}
  Suburbs,                                !- Terrain
  Yes;                                    !- Keep Site Location Information

OS:Site:GroundTemperature:Shallow,
  {1b5e5b32-2f0f-47f5-b336-7c74dd4b45cc}, !- Handle
  4.30207395723828,                       !- January Surface Ground Temperature {C}
  2.29327249652502,                       !- February Surface Ground Temperature {C}
  2.13240047156047,                       !- March Surface Ground Temperature {C}
  3.08567940719286,                       !- April Surface Ground Temperature {C}
  6.91256312497526,                       !- May Surface Ground Temperature {C}
  10.7216195949507,                       !- June Surface Ground Temperature {C}
  14.0238679822574,                       !- July Surface Ground Temperature {C}
  16.1157611184724,                       !- August Surface Ground Temperature {C}
  16.2934789303462,                       !- September Surface Ground Temperature {C}
  14.5920754632847,                       !- October Surface Ground Temperature {C}
  11.374036348653,                        !- November Surface Ground Temperature {C}
  7.68182621661674;                       !- December Surface Ground Temperature {C}

OS:Site:WaterMainsTemperature,
  {2afda408-f0ea-47d6-9b17-4abb970f6fbf}, !- Handle
  Schedule,                               !- Calculation Method
  {5f5d6266-5a43-4600-8f4a-b943fd712a7a}; !- Temperature Schedule Name

OS:Schedule:FixedInterval,
  {5f5d6266-5a43-4600-8f4a-b943fd712a7a}, !- Handle
  unit1_mains_temperature_schedule,       !- Name
  {96a57e3e-f7e1-472a-bae8-66af2acb9365}, !- Schedule Type Limits Name
  ,                                       !- Translate to Schedule File
  ,                                       !- Interpolate to Timestep
  1440,                                   !- Interval Length {minutes}
  ,                                       !- Out Of Range Value
  1,                                      !- Start Month
  1,                                      !- Start Day
  8.20444444444444,                       !- Value 1
  8.13555555555555,                       !- Value 2
  8.06777777777778,                       !- Value 3
  8.00111111111111,                       !- Value 4
  7.93611111111111,                       !- Value 5
  7.87222222222222,                       !- Value 6
  7.80944444444445,                       !- Value 7
  7.74833333333333,                       !- Value 8
  7.68888888888889,                       !- Value 9
  7.63055555555555,                       !- Value 10
  7.57333333333333,                       !- Value 11
  7.51777777777778,                       !- Value 12
  7.46333333333333,                       !- Value 13
  7.41111111111111,                       !- Value 14
  7.35944444444444,                       !- Value 15
  7.31,                                   !- Value 16
  7.26166666666666,                       !- Value 17
  7.215,                                  !- Value 18
  7.17,                                   !- Value 19
  7.12611111111111,                       !- Value 20
  7.08388888888889,                       !- Value 21
  7.04388888888889,                       !- Value 22
  7.00444444444444,                       !- Value 23
  6.96722222222222,                       !- Value 24
  6.93166666666666,                       !- Value 25
  6.89777777777778,                       !- Value 26
  6.865,                                  !- Value 27
  6.83444444444444,                       !- Value 28
  6.805,                                  !- Value 29
  6.77722222222222,                       !- Value 30
  6.75166666666667,                       !- Value 31
  6.72722222222222,                       !- Value 32
  6.70444444444444,                       !- Value 33
  6.68388888888889,                       !- Value 34
  6.66444444444445,                       !- Value 35
  6.64722222222222,                       !- Value 36
  6.63111111111111,                       !- Value 37
  6.61722222222222,                       !- Value 38
  6.605,                                  !- Value 39
  6.59388888888889,                       !- Value 40
  6.585,                                  !- Value 41
  6.57777777777778,                       !- Value 42
  6.57222222222222,                       !- Value 43
  6.56888888888889,                       !- Value 44
  6.56666666666667,                       !- Value 45
  6.56611111111111,                       !- Value 46
  6.56777777777778,                       !- Value 47
  6.57055555555555,                       !- Value 48
  6.57555555555555,                       !- Value 49
  6.58166666666667,                       !- Value 50
  6.59,                                   !- Value 51
  6.6,                                    !- Value 52
  6.61166666666667,                       !- Value 53
  6.625,                                  !- Value 54
  6.64,                                   !- Value 55
  6.65722222222222,                       !- Value 56
  6.67555555555555,                       !- Value 57
  6.69555555555556,                       !- Value 58
  6.71722222222222,                       !- Value 59
  6.74111111111111,                       !- Value 60
  6.76611111111111,                       !- Value 61
  6.79333333333333,                       !- Value 62
  6.82166666666667,                       !- Value 63
  6.85166666666667,                       !- Value 64
  6.88333333333333,                       !- Value 65
  6.91722222222222,                       !- Value 66
  6.95222222222222,                       !- Value 67
  6.98888888888889,                       !- Value 68
  7.02666666666667,                       !- Value 69
  7.06666666666667,                       !- Value 70
  7.10833333333333,                       !- Value 71
  7.15111111111111,                       !- Value 72
  7.19555555555555,                       !- Value 73
  7.24166666666666,                       !- Value 74
  7.28944444444445,                       !- Value 75
  7.33833333333333,                       !- Value 76
  7.38888888888889,                       !- Value 77
  7.44111111111111,                       !- Value 78
  7.49444444444445,                       !- Value 79
  7.54944444444444,                       !- Value 80
  7.60611111111111,                       !- Value 81
  7.66388888888889,                       !- Value 82
  7.72277777777778,                       !- Value 83
  7.78333333333333,                       !- Value 84
  7.84555555555556,                       !- Value 85
  7.90888888888889,                       !- Value 86
  7.97333333333333,                       !- Value 87
  8.03944444444444,                       !- Value 88
  8.10666666666667,                       !- Value 89
  8.175,                                  !- Value 90
  8.245,                                  !- Value 91
  8.31555555555556,                       !- Value 92
  8.38777777777778,                       !- Value 93
  8.46111111111111,                       !- Value 94
  8.53555555555555,                       !- Value 95
  8.61166666666666,                       !- Value 96
  8.68833333333333,                       !- Value 97
  8.76611111111111,                       !- Value 98
  8.845,                                  !- Value 99
  8.925,                                  !- Value 100
  9.00611111111111,                       !- Value 101
  9.08777777777778,                       !- Value 102
  9.17111111111111,                       !- Value 103
  9.255,                                  !- Value 104
  9.33944444444444,                       !- Value 105
  9.42555555555556,                       !- Value 106
  9.51222222222222,                       !- Value 107
  9.59944444444445,                       !- Value 108
  9.68777777777778,                       !- Value 109
  9.77666666666667,                       !- Value 110
  9.86666666666667,                       !- Value 111
  9.95722222222222,                       !- Value 112
  10.0488888888889,                       !- Value 113
  10.1405555555556,                       !- Value 114
  10.2333333333333,                       !- Value 115
  10.3266666666667,                       !- Value 116
  10.4205555555556,                       !- Value 117
  10.515,                                 !- Value 118
  10.61,                                  !- Value 119
  10.7055555555556,                       !- Value 120
  10.8016666666667,                       !- Value 121
  10.8983333333333,                       !- Value 122
  10.9955555555556,                       !- Value 123
  11.0927777777778,                       !- Value 124
  11.1905555555556,                       !- Value 125
  11.2888888888889,                       !- Value 126
  11.3872222222222,                       !- Value 127
  11.4861111111111,                       !- Value 128
  11.585,                                 !- Value 129
  11.6844444444444,                       !- Value 130
  11.7838888888889,                       !- Value 131
  11.8833333333333,                       !- Value 132
  11.9833333333333,                       !- Value 133
  12.0827777777778,                       !- Value 134
  12.1827777777778,                       !- Value 135
  12.2833333333333,                       !- Value 136
  12.3833333333333,                       !- Value 137
  12.4833333333333,                       !- Value 138
  12.5833333333333,                       !- Value 139
  12.6833333333333,                       !- Value 140
  12.7833333333333,                       !- Value 141
  12.8827777777778,                       !- Value 142
  12.9827777777778,                       !- Value 143
  13.0822222222222,                       !- Value 144
  13.1811111111111,                       !- Value 145
  13.2805555555556,                       !- Value 146
  13.3788888888889,                       !- Value 147
  13.4777777777778,                       !- Value 148
  13.5755555555556,                       !- Value 149
  13.6733333333333,                       !- Value 150
  13.7711111111111,                       !- Value 151
  13.8677777777778,                       !- Value 152
  13.9644444444444,                       !- Value 153
  14.0605555555556,                       !- Value 154
  14.1561111111111,                       !- Value 155
  14.2511111111111,                       !- Value 156
  14.3455555555556,                       !- Value 157
  14.4394444444444,                       !- Value 158
  14.5327777777778,                       !- Value 159
  14.6255555555556,                       !- Value 160
  14.7177777777778,                       !- Value 161
  14.8088888888889,                       !- Value 162
  14.8994444444444,                       !- Value 163
  14.9894444444444,                       !- Value 164
  15.0783333333333,                       !- Value 165
  15.1666666666667,                       !- Value 166
  15.2538888888889,                       !- Value 167
  15.3405555555556,                       !- Value 168
  15.4266666666667,                       !- Value 169
  15.5111111111111,                       !- Value 170
  15.595,                                 !- Value 171
  15.6783333333333,                       !- Value 172
  15.76,                                  !- Value 173
  15.8411111111111,                       !- Value 174
  15.9211111111111,                       !- Value 175
  16,                                     !- Value 176
  16.0777777777778,                       !- Value 177
  16.1544444444444,                       !- Value 178
  16.23,                                  !- Value 179
  16.3044444444444,                       !- Value 180
  16.3777777777778,                       !- Value 181
  16.45,                                  !- Value 182
  16.5211111111111,                       !- Value 183
  16.5905555555556,                       !- Value 184
  16.6588888888889,                       !- Value 185
  16.7261111111111,                       !- Value 186
  16.7922222222222,                       !- Value 187
  16.8566666666667,                       !- Value 188
  16.92,                                  !- Value 189
  16.9822222222222,                       !- Value 190
  17.0427777777778,                       !- Value 191
  17.1016666666667,                       !- Value 192
  17.1594444444444,                       !- Value 193
  17.2161111111111,                       !- Value 194
  17.2711111111111,                       !- Value 195
  17.3244444444444,                       !- Value 196
  17.3761111111111,                       !- Value 197
  17.4266666666667,                       !- Value 198
  17.4761111111111,                       !- Value 199
  17.5233333333333,                       !- Value 200
  17.5694444444444,                       !- Value 201
  17.6138888888889,                       !- Value 202
  17.6572222222222,                       !- Value 203
  17.6983333333333,                       !- Value 204
  17.7383333333333,                       !- Value 205
  17.7766666666667,                       !- Value 206
  17.8127777777778,                       !- Value 207
  17.8477777777778,                       !- Value 208
  17.8816666666667,                       !- Value 209
  17.9133333333333,                       !- Value 210
  17.9433333333333,                       !- Value 211
  17.9716666666667,                       !- Value 212
  17.9988888888889,                       !- Value 213
  18.0238888888889,                       !- Value 214
  18.0472222222222,                       !- Value 215
  18.0688888888889,                       !- Value 216
  18.0894444444444,                       !- Value 217
  18.1077777777778,                       !- Value 218
  18.1244444444444,                       !- Value 219
  18.1394444444444,                       !- Value 220
  18.1527777777778,                       !- Value 221
  18.1644444444444,                       !- Value 222
  18.1744444444444,                       !- Value 223
  18.1827777777778,                       !- Value 224
  18.1888888888889,                       !- Value 225
  18.1938888888889,                       !- Value 226
  18.1966666666667,                       !- Value 227
  18.1983333333333,                       !- Value 228
  18.1977777777778,                       !- Value 229
  18.1955555555556,                       !- Value 230
  18.1916666666667,                       !- Value 231
  18.1861111111111,                       !- Value 232
  18.1788888888889,                       !- Value 233
  18.17,                                  !- Value 234
  18.1594444444444,                       !- Value 235
  18.1466666666667,                       !- Value 236
  18.1327777777778,                       !- Value 237
  18.1166666666667,                       !- Value 238
  18.0994444444444,                       !- Value 239
  18.08,                                  !- Value 240
  18.0594444444444,                       !- Value 241
  18.0366666666667,                       !- Value 242
  18.0122222222222,                       !- Value 243
  17.9866666666667,                       !- Value 244
  17.9588888888889,                       !- Value 245
  17.9294444444444,                       !- Value 246
  17.8988888888889,                       !- Value 247
  17.8661111111111,                       !- Value 248
  17.8322222222222,                       !- Value 249
  17.7961111111111,                       !- Value 250
  17.7588888888889,                       !- Value 251
  17.72,                                  !- Value 252
  17.6794444444444,                       !- Value 253
  17.6372222222222,                       !- Value 254
  17.5933333333333,                       !- Value 255
  17.5483333333333,                       !- Value 256
  17.5016666666667,                       !- Value 257
  17.4533333333333,                       !- Value 258
  17.4038888888889,                       !- Value 259
  17.3522222222222,                       !- Value 260
  17.2994444444444,                       !- Value 261
  17.2455555555556,                       !- Value 262
  17.19,                                  !- Value 263
  17.1327777777778,                       !- Value 264
  17.0744444444444,                       !- Value 265
  17.0144444444444,                       !- Value 266
  16.9533333333333,                       !- Value 267
  16.8911111111111,                       !- Value 268
  16.8272222222222,                       !- Value 269
  16.7616666666667,                       !- Value 270
  16.695,                                 !- Value 271
  16.6272222222222,                       !- Value 272
  16.5583333333333,                       !- Value 273
  16.4883333333333,                       !- Value 274
  16.4166666666667,                       !- Value 275
  16.3438888888889,                       !- Value 276
  16.27,                                  !- Value 277
  16.195,                                 !- Value 278
  16.1188888888889,                       !- Value 279
  16.0416666666667,                       !- Value 280
  15.9633333333333,                       !- Value 281
  15.8838888888889,                       !- Value 282
  15.8033333333333,                       !- Value 283
  15.7222222222222,                       !- Value 284
  15.6394444444444,                       !- Value 285
  15.5561111111111,                       !- Value 286
  15.4722222222222,                       !- Value 287
  15.3866666666667,                       !- Value 288
  15.3005555555556,                       !- Value 289
  15.2133333333333,                       !- Value 290
  15.1255555555556,                       !- Value 291
  15.0372222222222,                       !- Value 292
  14.9477777777778,                       !- Value 293
  14.8572222222222,                       !- Value 294
  14.7666666666667,                       !- Value 295
  14.675,                                 !- Value 296
  14.5827777777778,                       !- Value 297
  14.4894444444444,                       !- Value 298
  14.3961111111111,                       !- Value 299
  14.3016666666667,                       !- Value 300
  14.2072222222222,                       !- Value 301
  14.1116666666667,                       !- Value 302
  14.0161111111111,                       !- Value 303
  13.9194444444444,                       !- Value 304
  13.8227777777778,                       !- Value 305
  13.7255555555556,                       !- Value 306
  13.6283333333333,                       !- Value 307
  13.53,                                  !- Value 308
  13.4316666666667,                       !- Value 309
  13.3333333333333,                       !- Value 310
  13.2344444444444,                       !- Value 311
  13.1355555555556,                       !- Value 312
  13.0361111111111,                       !- Value 313
  12.9366666666667,                       !- Value 314
  12.8366666666667,                       !- Value 315
  12.7366666666667,                       !- Value 316
  12.6366666666667,                       !- Value 317
  12.5366666666667,                       !- Value 318
  12.4366666666667,                       !- Value 319
  12.3366666666667,                       !- Value 320
  12.2366666666667,                       !- Value 321
  12.1366666666667,                       !- Value 322
  12.0366666666667,                       !- Value 323
  11.9366666666667,                       !- Value 324
  11.8372222222222,                       !- Value 325
  11.7377777777778,                       !- Value 326
  11.6383333333333,                       !- Value 327
  11.5388888888889,                       !- Value 328
  11.44,                                  !- Value 329
  11.3416666666667,                       !- Value 330
  11.2433333333333,                       !- Value 331
  11.145,                                 !- Value 332
  11.0477777777778,                       !- Value 333
  10.9505555555556,                       !- Value 334
  10.8533333333333,                       !- Value 335
  10.7572222222222,                       !- Value 336
  10.6611111111111,                       !- Value 337
  10.5661111111111,                       !- Value 338
  10.4711111111111,                       !- Value 339
  10.3772222222222,                       !- Value 340
  10.2833333333333,                       !- Value 341
  10.19,                                  !- Value 342
  10.0977777777778,                       !- Value 343
  10.0061111111111,                       !- Value 344
  9.915,                                  !- Value 345
  9.825,                                  !- Value 346
  9.73555555555556,                       !- Value 347
  9.64666666666666,                       !- Value 348
  9.55888888888889,                       !- Value 349
  9.47166666666667,                       !- Value 350
  9.38555555555555,                       !- Value 351
  9.3,                                    !- Value 352
  9.21555555555556,                       !- Value 353
  9.13222222222222,                       !- Value 354
  9.04944444444445,                       !- Value 355
  8.96833333333333,                       !- Value 356
  8.88777777777778,                       !- Value 357
  8.80833333333333,                       !- Value 358
  8.73,                                   !- Value 359
  8.65222222222222,                       !- Value 360
  8.57611111111111,                       !- Value 361
  8.50111111111111,                       !- Value 362
  8.42722222222222,                       !- Value 363
  8.35444444444444,                       !- Value 364
  8.28277777777778;                       !- Value 365

OS:SurfaceConvectionAlgorithm:Inside,
  {f27bac16-2c26-4fea-a2c1-46a3fe677fcb}, !- Handle
  TARP;                                   !- Algorithm

OS:SurfaceConvectionAlgorithm:Outside,
  {8a5c1bbe-d3d4-4060-a638-809422c3827a}, !- Handle
  DOE-2;                                  !- Algorithm

OS:Timestep,
  {b30dad3b-4dad-4432-bb77-b8a98400c921}, !- Handle
  1;                                      !- Number of Timesteps per Hour

OS:ScheduleTypeLimits,
  {2cb2a50e-2708-42ca-893b-10abaf539d37}, !- Handle
  OnOff 1,                                !- Name
  0,                                      !- Lower Limit Value
  1,                                      !- Upper Limit Value
  Discrete,                               !- Numeric Type
  Availability;                           !- Unit Type

OS:Schedule:Constant,
  {51ec2f0d-4f4d-4620-ba71-5d6fb8ffa025}, !- Handle
  Always Off Discrete,                    !- Name
  {2cb2a50e-2708-42ca-893b-10abaf539d37}, !- Schedule Type Limits Name
  0;                                      !- Value

OS:EnergyManagementSystem:ProgramCallingManager,
  {1415157c-57cf-4711-8173-cd4ab9af9134}, !- Handle
  unit1_infil_program_calling_manager,    !- Name
  BeginZoneTimestepAfterInitHeatBalance,  !- EnergyPlus Model Calling Point
  {8d2e0b81-314a-4c13-b236-bf2a414150aa}; !- Program Name 1

OS:AdditionalProperties,
  {90a25be4-9673-4022-bd1d-b2e8c1c2f7f7}, !- Handle
  {4c0c2b56-c21e-4eaa-ac96-82c966f3afae}, !- Object Name
  ObjectType,                             !- Feature Name 1
  String,                                 !- Feature Data Type 1
  mech vent;                              !- Feature Value 1

OS:AdditionalProperties,
  {66aa748f-9a12-4ed6-8fa2-9a28e69ead84}, !- Handle
  {af49a7a3-f79b-4b7e-9f4a-64caf2775f0d}, !- Object Name
  ObjectType,                             !- Feature Name 1
  String,                                 !- Feature Data Type 1
  infil;                                  !- Feature Value 1

OS:EnergyManagementSystem:GlobalVariable,
  {4c0c2b56-c21e-4eaa-ac96-82c966f3afae}, !- Handle
  unit1_infil_program_Qfan;               !- Name

OS:EnergyManagementSystem:GlobalVariable,
  {af49a7a3-f79b-4b7e-9f4a-64caf2775f0d}, !- Handle
  unit1_infil_program_Qinf;               !- Name

OS:EnergyManagementSystem:Sensor,
  {3cabfd2b-096a-4730-9aab-bb6f057b0838}, !- Handle
  unit1_clothes_dryer_exhaust_0_sch_s,    !- Name
  unit1_clothes_dryer,                    !- Output Variable or Output Meter Index Key Name
  Schedule Value;                         !- Output Variable or Output Meter Name

OS:ElectricEquipment,
  {2cdb5998-76bb-42ec-8ad4-8cdd6b22ea7f}, !- Handle
  unit1_mech_vent_bath_fan_0,             !- Name
  {bd6da934-ddf4-49f7-92fd-08119690b547}, !- Electric Equipment Definition Name
  {c231deee-73b1-4f67-af2d-ddfe3ae7b1be}, !- Space or SpaceType Name
  {64fb2d1d-73de-486e-8022-748672a57cf1}, !- Schedule Name
  ,                                       !- Multiplier
  mech vent;                              !- End-Use Subcategory

OS:ElectricEquipment:Definition,
  {bd6da934-ddf4-49f7-92fd-08119690b547}, !- Handle
  unit1_mech_vent_bath_fan_0,             !- Name
  EquipmentLevel,                         !- Design Level Calculation Method
  15,                                     !- Design Level {W}
  ,                                       !- Watts per Space Floor Area {W/m2}
  ,                                       !- Watts per Person {W/person}
  0,                                      !- Fraction Latent
  0,                                      !- Fraction Radiant
  1;                                      !- Fraction Lost

OS:EnergyManagementSystem:Sensor,
  {58ca0dbd-dd54-4e1e-866b-797320888c78}, !- Handle
  unit1_mech_vent_bath_fan_0_sch_s,       !- Name