
OS:Version,
  {a94a6e39-9238-4609-92a3-0aa7ac674914}, !- Handle
  3.10.0;                                 !- Version Identifier

OS:SimulationControl,
  {b2f0444e-0c9b-4eeb-bdbe-6cc82bc8dbb2}, !- Handle
  ,                                       !- Do Zone Sizing Calculation
  ,                                       !- Do System Sizing Calculation
  ,                                       !- Do Plant Sizing Calculation
  No;                                     !- Run Simulation for Sizing Periods

OS:Timestep,
  {3794ec8b-31f7-4bc6-b0d6-27a08823223b}, !- Handle
  1;                                      !- Number of Timesteps per Hour

OS:ShadowCalculation,
  {aa6aa006-9b36-4176-ae05-0f8369a84722}, !- Handle
  PolygonClipping,                        !- Shading Calculation Method
  ,                                       !- Shading Calculation Update Frequency Method
  20,                                     !- Shading Calculation Update Frequency
  200,                                    !- Maximum Figures in Shadow Overlap Calculations
  ,                                       !- Polygon Clipping Algorithm
  512,                                    !- Pixel Counting Resolution
  ,                                       !- Sky Diffuse Modeling Algorithm
  No,                                     !- Output External Shading Calculation Results
  No,                                     !- Disable Self-Shading Within Shading Zone Groups
  No;                                     !- Disable Self-Shading From Shading Zone Groups to Other Zones

OS:SurfaceConvectionAlgorithm:Outside,
  {eafc2a70-2b1b-4675-bbac-0070b304fe91}, !- Handle
  DOE-2;                                  !- Algorithm

OS:SurfaceConvectionAlgorithm:Inside,
  {7762a93d-6c4a-4754-8d53-f6db50a9300b}, !- Handle
  TARP;                                   !- Algorithm

OS:ZoneCapacitanceMultiplier:ResearchSpecial,
  {ec669c07-0756-47c2-984e-2a49998356ee}, !- Handle
  7,                                      !- Temperature Capacity Multiplier
  15,                                     !- Humidity Capacity Multiplier
  ;                                       !- Carbon Dioxide Capacity Multiplier

OS:ConvergenceLimits,
  {5332181d-ca6f-493d-b921-99849c720491}, !- Handle
  0;                                      !- Minimum System Timestep {minutes}

OS:RunPeriod,
  {c0f53331-3e8e-4337-a7a5-bc9728400a20}, !- Handle
  Run Period 1,                           !- Name
  1,                                      !- Begin Month
  1,                                      !- Begin Day of Month
  12,                                     !- End Month
  31,                                     !- End Day of Month
  ,                                       !- Use Weather File Holidays and Special Days
  ,                                       !- Use Weather File Daylight Saving Period
  ,                                       !- Apply Weekend Holiday Rule
  ,                                       !- Use Weather File Rain Indicators
  ,                                       !- Use Weather File Snow Indicators
  ;                                       !- Number of Times Runperiod to be Repeated

OS:PerformancePrecisionTradeoffs,
  {57da8b5d-e660-4bbe-91c4-26437a605317}, !- Handle
  ,                                       !- Use Coil Direct Solutions
  CarrollMRT;                             !- Zone Radiant Exchange Algorithm

OS:WeatherFile,
  {7e5d7a41-7b94-45b7-837e-1a9da26ade26}, !- Handle
  Buffalo Niagara Intl Ap,                !- City
  NY,                                     !- State Province Region
  USA,                                    !- Country
  TMY3,                                   !- Data Source
  725280,                                 !- WMO Number
  42.93,                                  !- Latitude {deg}
  -78.73,                                 !- Longitude {deg}
  -5,                                     !- Time Zone {hr}
  215,                                    !- Elevation {m}
  /Users/nmoore/github/urbanopt-example-geojson-project/example_project/weather/USA_NY_Buffalo-Greater.Buffalo.Intl.AP.725280_TMY3.epw, !- Url
  6B50E0FF,                               !- Checksum
  ,                                       !- Start Date Actual Year
  Sunday;                                 !- Start Day of Week

OS:YearDescription,
  {c5015400-771a-41da-81a3-abfebbc9afd8}, !- Handle
  2007,                                   !- Calendar Year
  ,                                       !- Day of Week for Start Day
  ;                                       !- Is Leap Year

OS:Site,
  {5fb4e441-1b8a-4fa4-8535-fa04d105a6dc}, !- Handle
  Buffalo Niagara Intl Ap_NY,             !- Name
  42.93,                                  !- Latitude {deg}
  -78.73,                                 !- Longitude {deg}
  -5,                                     !- Time Zone {hr}
  215,                                    !- Elevation {m}
  Suburbs,                                !- Terrain
  Yes;                                    !- Keep Site Location Information

OS:RunPeriodControl:DaylightSavingTime,
  {729ffa9a-4bc0-4d87-be58-17c3275f9d5f}, !- Handle
  Mar 12,                                 !- Start Date
  Nov 5;                                  !- End Date

OS:Site:GroundTemperature:Shallow,
  {49faa77e-e237-4a97-abc4-72458eb3058b}, !- Handle
  4.30207395723828,                       !- January Surface Ground Temperature {C}
  2.29327249652502,                       !- February Surface Ground Temperature {C}
  2.13240047156047,                       !- March Surface Ground Temperature {C}
  3.08567940719286,                       !- April Surface Ground Temperature {C}
  6.91256312497526,                       !- May Surface Ground Temperature {C}
  10.7216195949507,                       !- June Surface Ground Temperature {C}
  14.0238679822574,                       !- July Surface Ground Temperature {C}
  16.1157611184724,                       !- August Surface Ground Temperature {C}
  16.2934789303462,                       !- September Surface Ground Temperature {C}
  14.5920754632847,                       !- October Surface Ground Temperature {C}
  11.374036348653,                        !- November Surface Ground Temperature {C}
  7.68182621661674;                       !- December Surface Ground Temperature {C}

OS:ThermalZone,
  {8805cd6e-205b-4a14-82ec-09f5156cc22a}, !- Handle
  conditioned space,                      !- Name
  1,                                      !- Multiplier
  ,                                       !- Ceiling Height {m}
  692.06373070848,                        !- Volume {m3}
  ,                                       !- Floor Area {m2}
  ,                                       !- Zone Inside Convection Algorithm
  ,                                       !- Zone Outside Convection Algorithm
  ,                                       !- Zone Conditioning Equipment List Name
  {d7a1e901-dcbe-4880-80f1-4583c2847d12}, !- Zone Air Inlet Port List
  {a841f52f-54ab-4ef6-914a-3a3dfc724116}, !- Zone Air Exhaust Port List
  {73d6ada6-f8cc-4e4d-b72d-755f063c74be}, !- Zone Air Node Name
  {6deb1531-b373-4fb5-8010-e01bb44131e0}, !- Zone Return Air Port List
  ,                                       !- Primary Daylighting Control Name
  ,                                       !- Fraction of Zone Controlled by Primary Daylighting Control
  ,                                       !- Secondary Daylighting Control Name
  ,                                       !- Fraction of Zone Controlled by Secondary Daylighting Control
  ,                                       !- Illuminance Map Name
  ,                                       !- Group Rendering Name
  {013ab464-bb1a-4c7d-bc24-3a8cfba36f18}, !- Thermostat Name
  No;                                     !- Use Ideal Air Loads

OS:Node,
  {afa76267-e091-48ed-aed3-981411cfd30b}, !- Handle
  Node 1,                                 !- Name
  {73d6ada6-f8cc-4e4d-b72d-755f063c74be}, !- Inlet Port
  ;                                       !- Outlet Port

OS:Connection,
  {73d6ada6-f8cc-4e4d-b72d-755f063c74be}, !- Handle
  {8805cd6e-205b-4a14-82ec-09f5156cc22a}, !- Source Object
  11,                                     !- Outlet Port
  {afa76267-e091-48ed-aed3-981411cfd30b}, !- Target Object
  2;                                      !- Inlet Port

OS:PortList,
  {d7a1e901-dcbe-4880-80f1-4583c2847d12}, !- Handle
  {8805cd6e-205b-4a14-82ec-09f5156cc22a}, !- HVAC Component
  {1ecc9272-0043-4a3f-a65d-2e931ac86f95}; !- Port 1

OS:PortList,
  {a841f52f-54ab-4ef6-914a-3a3dfc724116}, !- Handle
  {8805cd6e-205b-4a14-82ec-09f5156cc22a}; !- HVAC Component

OS:PortList,
  {6deb1531-b373-4fb5-8010-e01bb44131e0}, !- Handle
  {8805cd6e-205b-4a14-82ec-09f5156cc22a}, !- HVAC Component
  {239391ce-ca17-46ec-b547-239ece56a3ca}; !- Port 1

OS:Sizing:Zone,
  {f03d974c-6087-4f4d-ba12-6a3e918cfaf6}, !- Handle
  {8805cd6e-205b-4a14-82ec-09f5156cc22a}, !- Zone or ZoneList Name
  SupplyAirTemperature,                   !- Zone Cooling Design Supply Air Temperature Input Method
  14,                                     !- Zone Cooling Design Supply Air Temperature {C}
  11.11,                                  !- Zone Cooling Design Supply Air Temperature Difference {deltaC}
  SupplyAirTemperature,                   !- Zone Heating Design Supply Air Temperature Input Method
  40,                                     !- Zone Heating Design Supply Air Temperature {C}
  11.11,                                  !- Zone Heating Design Supply Air Temperature Difference {deltaC}
  0.0085,                                 !- Zone Cooling Design Supply Air Humidity Ratio {kg-H2O/kg-air}
  0.008,                                  !- Zone Heating Design Supply Air Humidity Ratio {kg-H2O/kg-air}
  ,                                       !- Zone Heating Sizing Factor
  ,                                       !- Zone Cooling Sizing Factor
  DesignDay,                              !- Cooling Design Air Flow Method
  ,                                       !- Cooling Design Air Flow Rate {m3/s}
  ,                                       !- Cooling Minimum Air Flow per Zone Floor Area {m3/s-m2}
  ,                                       !- Cooling Minimum Air Flow {m3/s}
  ,                                       !- Cooling Minimum Air Flow Fraction
  DesignDay,                              !- Heating Design Air Flow Method
  ,                                       !- Heating Design Air Flow Rate {m3/s}
  ,                                       !- Heating Maximum Air Flow per Zone Floor Area {m3/s-m2}
  ,                                       !- Heating Maximum Air Flow {m3/s}
  ,                                       !- Heating Maximum Air Flow Fraction
  No,                                     !- Account for Dedicated Outdoor Air System
  NeutralSupplyAir,                       !- Dedicated Outdoor Air System Control Strategy
  autosize,                               !- Dedicated Outdoor Air Low Setpoint Temperature for Design {C}
  autosize,                               !- Dedicated Outdoor Air High Setpoint Temperature for Design {C}
  Sensible Load Only No Latent Load,      !- Zone Load Sizing Method
  HumidityRatioDifference,                !- Zone Latent Cooling Design Supply Air Humidity Ratio Input Method
  ,                                       !- Zone Dehumidification Design Supply Air Humidity Ratio {kgWater/kgDryAir}
  0.005,                                  !- Zone Cooling Design Supply Air Humidity Ratio Difference {kgWater/kgDryAir}
  HumidityRatioDifference,                !- Zone Latent Heating Design Supply Air Humidity Ratio Input Method
  ,                                       !- Zone Humidification Design Supply Air Humidity Ratio {kgWater/kgDryAir}
  0.005,                                  !- Zone Humidification Design Supply Air Humidity Ratio Difference {kgWater/kgDryAir}
  ,                                       !- Zone Humidistat Dehumidification Set Point Schedule Name
  ,                                       !- Zone Humidistat Humidification Set Point Schedule Name
  ,                                       !- Design Zone Air Distribution Effectiveness in Cooling Mode
  ,                                       !- Design Zone Air Distribution Effectiveness in Heating Mode
  ,                                       !- Design Zone Secondary Recirculation Fraction {dimensionless}
  ,                                       !- Design Minimum Zone Ventilation Efficiency {dimensionless}
  Coincident;                             !- Sizing Option

OS:ZoneHVAC:EquipmentList,
  {08acaa33-cad6-4f00-a76e-b504aae9c8c3}, !- Handle
  Zone HVAC Equipment List 1,             !- Name
  {8805cd6e-205b-4a14-82ec-09f5156cc22a}, !- Thermal Zone
  ,                                       !- Load Distribution Scheme
  {c0142616-bf17-4d8c-b3d1-d825b376ba90}, !- Zone Equipment 1
  1,                                      !- Zone Equipment Cooling Sequence 1
  1,                                      !- Zone Equipment Heating or No-Load Sequence 1
  {2a5bb03c-d99a-4324-a796-0ec7a9263a1c}, !- Zone Equipment Sequential Cooling Fraction Schedule Name 1
  {64eb6731-dd1f-43af-9cf6-6ee5fcb8302b}, !- Zone Equipment Sequential Heating Fraction Schedule Name 1
  {6cb44a7c-dec7-4938-b3fd-d6e1786dd791}, !- Zone Equipment 2
  2,                                      !- Zone Equipment Cooling Sequence 2
  2,                                      !- Zone Equipment Heating or No-Load Sequence 2
  {7d4def1b-763f-476e-b24f-6b33872ae6a8}, !- Zone Equipment Sequential Cooling Fraction Schedule Name 2
  {6b68e82e-ff5d-484c-8b36-ee64490b9efa}; !- Zone Equipment Sequential Heating Fraction Schedule Name 2

OS:AdditionalProperties,
  {b4ab7b33-2e03-4d96-8d7b-489267cf45c9}, !- Handle
  {8805cd6e-205b-4a14-82ec-09f5156cc22a}, !- Object Name
  ObjectType,                             !- Feature Name 1
  String,                                 !- Feature Data Type 1
  conditioned space;                      !- Feature Value 1

OS:Space,
  {aeb52c88-c5ff-40d3-a080-1d073f2db11b}, !- Handle
  conditioned space 1,                    !- Name
  ,                                       !- Space Type Name
  ,                                       !- Default Construction Set Name
  ,                                       !- Default Schedule Set Name
  ,                                       !- Direction of Relative North {deg}
  ,                                       !- X Origin {m}
  ,                                       !- Y Origin {m}
  ,                                       !- Z Origin {m}
  ,                                       !- Building Story Name
  {8805cd6e-205b-4a14-82ec-09f5156cc22a}, !- Thermal Zone Name
  ,                                       !- Part of Total Floor Area
  ,                                       !- Design Specification Outdoor Air Object Name
  ,                                       !- Building Unit Name
  692.06373070848;                        !- Volume {m3}

OS:Schedule:Ruleset,
  {2dda0c84-93ad-4081-8c77-bf387ff7f12a}, !- Handle
  heating setpoint,                       !- Name
  {601fbea5-89c2-4d16-a336-292d25397f0c}, !- Schedule Type Limits Name
  {ea99edba-1bbf-47d9-88eb-d68e27c04131}; !- Default Day Schedule Name

OS:Schedule:Day,
  {ea99edba-1bbf-47d9-88eb-d68e27c04131}, !- Handle
  heating setpoint default day,           !- Name
  {601fbea5-89c2-4d16-a336-292d25397f0c}, !- Schedule Type Limits Name
  ,                                       !- Interpolate to Timestep
  24,                                     !- Hour 1
  0,                                      !- Minute 1
  0;                                      !- Value Until Time 1

OS:Schedule:Rule,
  {b96deefd-6dcb-48c0-9e26-b22e113ea376}, !- Handle
  heating setpoint allday rule,           !- Name
  {2dda0c84-93ad-4081-8c77-bf387ff7f12a}, !- Schedule Ruleset Name
  0,                                      !- Rule Order
  {25098b7c-8343-46d0-9d6c-5c1a3c5af1f5}, !- Day Schedule Name
  Yes,                                    !- Apply Sunday
  Yes,                                    !- Apply Monday
  Yes,                                    !- Apply Tuesday
  Yes,                                    !- Apply Wednesday
  Yes,                                    !- Apply Thursday
  Yes,                                    !- Apply Friday
  Yes,                                    !- Apply Saturday
  DateRange,                              !- Date Specification Type
  1,                                      !- Start Month
  1,                                      !- Start Day
  12,                                     !- End Month
  31;                                     !- End Day

OS:Schedule:Day,
  {25098b7c-8343-46d0-9d6c-5c1a3c5af1f5}, !- Handle
  heating setpoint day,                   !- Name
  {601fbea5-89c2-4d16-a336-292d25397f0c}, !- Schedule Type Limits Name
  ,                                       !- Interpolate to Timestep
  24,                                     !- Hour 1
  0,                                      !- Minute 1
  20;                                     !- Value Until Time 1

OS:Schedule:Ruleset,
  {75dd291a-a1ac-48ef-b649-b2baec32e6e0}, !- Handle
  cooling setpoint,                       !- Name
  {601fbea5-89c2-4d16-a336-292d25397f0c}, !- Schedule Type Limits Name
  {9fb30e25-5f72-4323-b198-4ebb004fd67e}; !- Default Day Schedule Name

OS:Schedule:Day,
  {9fb30e25-5f72-4323-b198-4ebb004fd67e}, !- Handle
  cooling setpoint default day,           !- Name
  {601fbea5-89c2-4d16-a336-292d25397f0c}, !- Schedule Type Limits Name
  ,                                       !- Interpolate to Timestep
  24,                                     !- Hour 1
  0,                                      !- Minute 1
  0;                                      !- Value Until Time 1

OS:Schedule:Rule,
  {f8f29633-decf-4c73-8ab1-a12a54f8363f}, !- Handle
  cooling setpoint allday rule,           !- Name
  {75dd291a-a1ac-48ef-b649-b2baec32e6e0}, !- Schedule Ruleset Name
  0,                                      !- Rule Order
  {27830958-0727-42b1-bf40-5fec0034eb81}, !- Day Schedule Name
  Yes,                                    !- Apply Sunday
  Yes,                                    !- Apply Monday
  Yes,                                    !- Apply Tuesday
  Yes,                                    !- Apply Wednesday
  Yes,                                    !- Apply Thursday
  Yes,                                    !- Apply Friday
  Yes,                                    !- Apply Saturday
  DateRange,                              !- Date Specification Type
  1,                                      !- Start Month
  1,                                      !- Start Day
  12,                                     !- End Month
  31;                                     !- End Day

OS:Schedule:Day,
  {27830958-0727-42b1-bf40-5fec0034eb81}, !- Handle
  cooling setpoint day,                   !- Name
  {601fbea5-89c2-4d16-a336-292d25397f0c}, !- Schedule Type Limits Name
  ,                                       !- Interpolate to Timestep
  24,                                     !- Hour 1
  0,                                      !- Minute 1
  25.5555555555556;                       !- Value Until Time 1

OS:ThermostatSetpoint:DualSetpoint,
  {013ab464-bb1a-4c7d-bc24-3a8cfba36f18}, !- Handle
  conditioned space temperature setpoint, !- Name
  {2dda0c84-93ad-4081-8c77-bf387ff7f12a}, !- Heating Setpoint Temperature Schedule Name
  {75dd291a-a1ac-48ef-b649-b2baec32e6e0}, !- Cooling Setpoint Temperature Schedule Name
  0;                                      !- Temperature Difference Between Cutout And Setpoint {deltaC}

OS:ScheduleTypeLimits,
  {601fbea5-89c2-4d16-a336-292d25397f0c}, !- Handle
  Temperature,                            !- Name
  ,                                       !- Lower Limit Value
  ,                                       !- Upper Limit Value
  Continuous,                             !- Numeric Type
  Temperature;                            !- Unit Type

OS:Surface,
  {3b1d7965-dee2-4ef8-94aa-789e619c2356}, !- Handle
  Roof1,                                  !- Name
  RoofCeiling,                            !- Surface Type
  {ca1a17c1-44c1-43c0-a915-7abb53a5cc76}, !- Construction Name
  {7f65fd77-1c00-4460-bc8d-449e3c6af7d1}, !- Space Name
  Outdoors,                               !- Outside Boundary Condition
  ,                                       !- Outside Boundary Condition Object
  SunExposed,                             !- Sun Exposure
  WindExposed,                            !- Wind Exposure
  ,                                       !- View Factor to Ground
  ,                                       !- Number of Vertices
  -26.9347048849634, 58.0557891618865, 2.4384, !- X,Y,Z Vertex 1 {m}
  -26.9347048849634, 46.7895631136661, 8.0715130241102, !- X,Y,Z Vertex 2 {m}
  -14.3386812381136, 46.7895631136661, 8.0715130241102, !- X,Y,Z Vertex 3 {m}
  -14.3386812381136, 58.0557891618865, 2.4384; !- X,Y,Z Vertex 4 {m}

OS:AdditionalProperties,
  {59cd3163-2053-49ed-9591-b24e1bf9339a}, !- Handle
  {3b1d7965-dee2-4ef8-94aa-789e619c2356}, !- Object Name
  Length,                                 !- Feature Name 1
  Double,                                 !- Feature Data Type 1
  41.325536899113608,                     !- Feature Value 1
  Width,                                  !- Feature Name 2
  Double,                                 !- Feature Data Type 2
  41.325536899113601,                     !- Feature Value 2
  Azimuth,                                !- Feature Name 3
  Integer,                                !- Feature Data Type 3
  0,                                      !- Feature Value 3
  Tilt,                                   !- Feature Name 4
  Double,                                 !- Feature Data Type 4
  0.5,                                    !- Feature Value 4
  SurfaceType,                            !- Feature Name 5
  String,                                 !- Feature Data Type 5
  Roof;                                   !- Feature Value 5

OS:ThermalZone,
  {243ee71a-3cfc-476b-96c9-ac5c35bb6a00}, !- Handle
  attic - vented,                         !- Name
  1,                                      !- Multiplier
  ,                                       !- Ceiling Height {m}
  356.390921899745,                       !- Volume {m3}
  ,                                       !- Floor Area {m2}
  ,                                       !- Zone Inside Convection Algorithm
  ,                                       !- Zone Outside Convection Algorithm
  ,                                       !- Zone Conditioning Equipment List Name
  {c1715fb1-70a7-4d5a-8936-ef7e0482595b}, !- Zone Air Inlet Port List
  {ed60a790-a9fe-4d6b-bdd2-c835cf5f2442}, !- Zone Air Exhaust Port List
  {1496cbb9-f838-4cd0-bb30-4ee60609ec57}, !- Zone Air Node Name
  {0aedf88c-32ee-495b-b379-23d70b0459de}, !- Zone Return Air Port List
  ,                                       !- Primary Daylighting Control Name
  ,                                       !- Fraction of Zone Controlled by Primary Daylighting Control
  ,                                       !- Secondary Daylighting Control Name
  ,                                       !- Fraction of Zone Controlled by Secondary Daylighting Control
  ,                                       !- Illuminance Map Name
  ,                                       !- Group Rendering Name
  ,                                       !- Thermostat Name
  No;                                     !- Use Ideal Air Loads

OS:Node,
  {0242d2f4-820b-44ab-bd19-242d8bd25f75}, !- Handle
  Node 2,                                 !- Name
  {1496cbb9-f838-4cd0-bb30-4ee60609ec57}, !- Inlet Port
  ;                                       !- Outlet Port

OS:Connection,
  {1496cbb9-f838-4cd0-bb30-4ee60609ec57}, !- Handle
  {243ee71a-3cfc-476b-96c9-ac5c35bb6a00}, !- Source Object
  11,                                     !- Outlet Port
  {0242d2f4-820b-44ab-bd19-242d8bd25f75}, !- Target Object
  2;                                      !- Inlet Port

OS:PortList,
  {c1715fb1-70a7-4d5a-8936-ef7e0482595b}, !- Handle
  {243ee71a-3cfc-476b-96c9-ac5c35bb6a00}; !- HVAC Component

OS:PortList,
  {ed60a790-a9fe-4d6b-bdd2-c835cf5f2442}, !- Handle
  {243ee71a-3cfc-476b-96c9-ac5c35bb6a00}; !- HVAC Component

OS:PortList,
  {0aedf88c-32ee-495b-b379-23d70b0459de}, !- Handle
  {243ee71a-3cfc-476b-96c9-ac5c35bb6a00}; !- HVAC Component

OS:Sizing:Zone,
  {a339a012-af61-407d-bd5f-076ea048378b}, !- Handle
  {243ee71a-3cfc-476b-96c9-ac5c35bb6a00}, !- Zone or ZoneList Name
  SupplyAirTemperature,                   !- Zone Cooling Design Supply Air Temperature Input Method
  14,                                     !- Zone Cooling Design Supply Air Temperature {C}
  11.11,                                  !- Zone Cooling Design Supply Air Temperature Difference {deltaC}
  SupplyAirTemperature,                   !- Zone Heating Design Supply Air Temperature Input Method
  40,                                     !- Zone Heating Design Supply Air Temperature {C}
  11.11,                                  !- Zone Heating Design Supply Air Temperature Difference {deltaC}
  0.0085,                                 !- Zone Cooling Design Supply Air Humidity Ratio {kg-H2O/kg-air}
  0.008,                                  !- Zone Heating Design Supply Air Humidity Ratio {kg-H2O/kg-air}
  ,                                       !- Zone Heating Sizing Factor
  ,                                       !- Zone Cooling Sizing Factor
  DesignDay,                              !- Cooling Design Air Flow Method
  ,                                       !- Cooling Design Air Flow Rate {m3/s}
  ,                                       !- Cooling Minimum Air Flow per Zone Floor Area {m3/s-m2}
  ,                                       !- Cooling Minimum Air Flow {m3/s}
  ,                                       !- Cooling Minimum Air Flow Fraction
  DesignDay,                              !- Heating Design Air Flow Method
  ,                                       !- Heating Design Air Flow Rate {m3/s}
  ,                                       !- Heating Maximum Air Flow per Zone Floor Area {m3/s-m2}
  ,                                       !- Heating Maximum Air Flow {m3/s}
  ,                                       !- Heating Maximum Air Flow Fraction
  No,                                     !- Account for Dedicated Outdoor Air System
  NeutralSupplyAir,                       !- Dedicated Outdoor Air System Control Strategy
  autosize,                               !- Dedicated Outdoor Air Low Setpoint Temperature for Design {C}
  autosize,                               !- Dedicated Outdoor Air High Setpoint Temperature for Design {C}
  Sensible Load Only No Latent Load,      !- Zone Load Sizing Method
  HumidityRatioDifference,                !- Zone Latent Cooling Design Supply Air Humidity Ratio Input Method
  ,                                       !- Zone Dehumidification Design Supply Air Humidity Ratio {kgWater/kgDryAir}
  0.005,                                  !- Zone Cooling Design Supply Air Humidity Ratio Difference {kgWater/kgDryAir}
  HumidityRatioDifference,                !- Zone Latent Heating Design Supply Air Humidity Ratio Input Method
  ,                                       !- Zone Humidification Design Supply Air Humidity Ratio {kgWater/kgDryAir}
  0.005,                                  !- Zone Humidification Design Supply Air Humidity Ratio Difference {kgWater/kgDryAir}
  ,                                       !- Zone Humidistat Dehumidification Set Point Schedule Name
  ,                                       !- Zone Humidistat Humidification Set Point Schedule Name
  ,                                       !- Design Zone Air Distribution Effectiveness in Cooling Mode
  ,                                       !- Design Zone Air Distribution Effectiveness in Heating Mode
  ,                                       !- Design Zone Secondary Recirculation Fraction {dimensionless}
  ,                                       !- Design Minimum Zone Ventilation Efficiency {dimensionless}
  Coincident;                             !- Sizing Option

OS:ZoneHVAC:EquipmentList,
  {2de30a12-d099-457b-a378-71d2b8ffdc1e}, !- Handle
  Zone HVAC Equipment List 2,             !- Name
  {243ee71a-3cfc-476b-96c9-ac5c35bb6a00}; !- Thermal Zone

OS:AdditionalProperties,
  {4cd6168d-d491-4f68-9f86-03137ebb3e77}, !- Handle
  {243ee71a-3cfc-476b-96c9-ac5c35bb6a00}, !- Object Name
  ObjectType,                             !- Feature Name 1
  String,                                 !- Feature Data Type 1
  attic - vented;                         !- Feature Value 1

OS:Space,
  {7f65fd77-1c00-4460-bc8d-449e3c6af7d1}, !- Handle
  attic - vented 1,                       !- Name
  ,                                       !- Space Type Name
  ,                                       !- Default Construction Set Name
  ,                                       !- Default Schedule Set Name
  ,                                       !- Direction of Relative North {deg}
  ,                                       !- X Origin {m}
  ,                                       !- Y Origin {m}
  ,                                       !- Z Origin {m}
  ,                                       !- Building Story Name
  {243ee71a-3cfc-476b-96c9-ac5c35bb6a00}, !- Thermal Zone Name
  ,                                       !- Part of Total Floor Area
  ,                                       !- Design Specification Outdoor Air Object Name
  ,                                       !- Building Unit Name
  356.390921899745;                       !- Volume {m3}

OS:Material,
  {6bd9b158-35c9-421a-b28f-3a14a5154207}, !- Handle
  asphalt or fiberglass shingles,         !- Name