
OS:Version,
  {42a0f78a-8278-4910-a675-c2f5ded6449a}, !- Handle
  3.9.0;                                  !- Version Identifier

OS:SimulationControl,
  {16d84802-82d4-425a-b0d3-1451d61584f4}, !- Handle
  ,                                       !- Do Zone Sizing Calculation
  ,                                       !- Do System Sizing Calculation
  ,                                       !- Do Plant Sizing Calculation
  No;                                     !- Run Simulation for Sizing Periods

OS:Timestep,
  {ff5ec7ec-d8b7-4f0c-be01-25e5922c4fa2}, !- Handle
  1;                                      !- Number of Timesteps per Hour

OS:ShadowCalculation,
  {582a7f3c-e735-4362-a25e-3af4d7b1ba9c}, !- Handle
  PolygonClipping,                        !- Shading Calculation Method
  ,                                       !- Shading Calculation Update Frequency Method
  20,                                     !- Shading Calculation Update Frequency
  200,                                    !- Maximum Figures in Shadow Overlap Calculations
  ,                                       !- Polygon Clipping Algorithm
  512,                                    !- Pixel Counting Resolution
  ,                                       !- Sky Diffuse Modeling Algorithm
  No,                                     !- Output External Shading Calculation Results
  No,                                     !- Disable Self-Shading Within Shading Zone Groups
  No;                                     !- Disable Self-Shading From Shading Zone Groups to Other Zones

OS:SurfaceConvectionAlgorithm:Outside,
  {19663056-50d0-4bf7-9b1a-e41ca629eed7}, !- Handle
  DOE-2;                                  !- Algorithm

OS:SurfaceConvectionAlgorithm:Inside,
  {7f232c16-bd1b-4b48-b72f-8541770f2464}, !- Handle
  TARP;                                   !- Algorithm

OS:ZoneCapacitanceMultiplier:ResearchSpecial,
  {b20c775f-7e53-4136-abda-00b08045918d}, !- Handle
  7,                                      !- Temperature Capacity Multiplier
  15,                                     !- Humidity Capacity Multiplier
  ;                                       !- Carbon Dioxide Capacity Multiplier

OS:ConvergenceLimits,
  {9203d195-d2a8-4b34-b15c-c57f016e83fd}, !- Handle
  0;                                      !- Minimum System Timestep {minutes}

OS:RunPeriod,
  {04e680b5-a2eb-46cd-a4fa-344f608ec831}, !- Handle
  Run Period 1,                           !- Name
  1,                                      !- Begin Month
  1,                                      !- Begin Day of Month
  12,                                     !- End Month
  31,                                     !- End Day of Month
  ,                                       !- Use Weather File Holidays and Special Days
  ,                                       !- Use Weather File Daylight Saving Period
  ,                                       !- Apply Weekend Holiday Rule
  ,                                       !- Use Weather File Rain Indicators
  ,                                       !- Use Weather File Snow Indicators
  ;                                       !- Number of Times Runperiod to be Repeated

OS:PerformancePrecisionTradeoffs,
  {aba94955-430f-4080-bd83-ba32359b5440}, !- Handle
  ,                                       !- Use Coil Direct Solutions
  CarrollMRT;                             !- Zone Radiant Exchange Algorithm

OS:WeatherFile,
  {be8260f4-27b3-43f9-92e1-d9ddeeec4d9c}, !- Handle
  Buffalo Niagara Intl Ap,                !- City
  NY,                                     !- State Province Region
  USA,                                    !- Country
  TMY3,                                   !- Data Source
  725280,                                 !- WMO Number
  42.93,                                  !- Latitude {deg}
  -78.73,                                 !- Longitude {deg}
  -5,                                     !- Time Zone {hr}
  215,                                    !- Elevation {m}
  /Users/nmoore/github/urbanopt-example-geojson-project/example_project/weather/USA_NY_Buffalo-Greater.Buffalo.Intl.AP.725280_TMY3.epw, !- Url
  6B50E0FF,                               !- Checksum
  ,                                       !- Start Date Actual Year
  Sunday;                                 !- Start Day of Week

OS:YearDescription,
  {111d5e8f-ee40-4d57-b0ac-dd37afc90f55}, !- Handle
  2007,                                   !- Calendar Year
  ,                                       !- Day of Week for Start Day
  ;                                       !- Is Leap Year

OS:Site,
  {6e3029c0-01ff-4f46-8d14-e637fd01d585}, !- Handle
  Buffalo Niagara Intl Ap_NY,             !- Name
  42.93,                                  !- Latitude {deg}
  -78.73,                                 !- Longitude {deg}
  -5,                                     !- Time Zone {hr}
  215,                                    !- Elevation {m}
  Suburbs,                                !- Terrain
  Yes;                                    !- Keep Site Location Information

OS:RunPeriodControl:DaylightSavingTime,
  {8ec61034-2fdc-4d55-bc5e-74a52f817400}, !- Handle
  Mar 12,                                 !- Start Date
  Nov 5;                                  !- End Date

OS:Site:GroundTemperature:Shallow,
  {d0e8ba17-04fc-4234-abec-686f4d34fc96}, !- Handle
  4.30207395723828,                       !- January Surface Ground Temperature {C}
  2.29327249652502,                       !- February Surface Ground Temperature {C}
  2.13240047156047,                       !- March Surface Ground Temperature {C}
  3.08567940719286,                       !- April Surface Ground Temperature {C}
  6.91256312497526,                       !- May Surface Ground Temperature {C}
  10.7216195949507,                       !- June Surface Ground Temperature {C}
  14.0238679822574,                       !- July Surface Ground Temperature {C}
  16.1157611184724,                       !- August Surface Ground Temperature {C}
  16.2934789303462,                       !- September Surface Ground Temperature {C}
  14.5920754632847,                       !- October Surface Ground Temperature {C}
  11.374036348653,                        !- November Surface Ground Temperature {C}
  7.68182621661674;                       !- December Surface Ground Temperature {C}

OS:ThermalZone,
  {26603f9c-dd7b-4320-a4a6-7e3f8fcc8ac0}, !- Handle
  conditioned space,                      !- Name
  1,                                      !- Multiplier
  ,                                       !- Ceiling Height {m}
  692.06373070848,                        !- Volume {m3}
  ,                                       !- Floor Area {m2}
  ,                                       !- Zone Inside Convection Algorithm
  ,                                       !- Zone Outside Convection Algorithm
  ,                                       !- Zone Conditioning Equipment List Name
  {c2bf7b8a-74b2-4f17-a643-0881a3df6b8b}, !- Zone Air Inlet Port List
  {1e6e8092-e88e-4bad-be91-a61d76cccef0}, !- Zone Air Exhaust Port List
  {e278051a-58b4-4f05-ae4a-a62f9504f9cf}, !- Zone Air Node Name
  {b5ecee43-b05d-4c0f-9e36-b47d3719d0a0}, !- Zone Return Air Port List
  ,                                       !- Primary Daylighting Control Name
  ,                                       !- Fraction of Zone Controlled by Primary Daylighting Control
  ,                                       !- Secondary Daylighting Control Name
  ,                                       !- Fraction of Zone Controlled by Secondary Daylighting Control
  ,                                       !- Illuminance Map Name
  ,                                       !- Group Rendering Name
  {e717b984-23c3-4d5f-abd7-da5fa22d9160}, !- Thermostat Name
  No;                                     !- Use Ideal Air Loads

OS:Node,
  {b297349d-53d4-4a13-ab47-3c2e6f262917}, !- Handle
  Node 1,                                 !- Name
  {e278051a-58b4-4f05-ae4a-a62f9504f9cf}, !- Inlet Port
  ;                                       !- Outlet Port

OS:Connection,
  {e278051a-58b4-4f05-ae4a-a62f9504f9cf}, !- Handle
  {26603f9c-dd7b-4320-a4a6-7e3f8fcc8ac0}, !- Source Object
  11,                                     !- Outlet Port
  {b297349d-53d4-4a13-ab47-3c2e6f262917}, !- Target Object
  2;                                      !- Inlet Port

OS:PortList,
  {c2bf7b8a-74b2-4f17-a643-0881a3df6b8b}, !- Handle
  {26603f9c-dd7b-4320-a4a6-7e3f8fcc8ac0}, !- HVAC Component
  {799073c2-64cc-4c5c-821c-69bb1c5fc445}; !- Port 1

OS:PortList,
  {1e6e8092-e88e-4bad-be91-a61d76cccef0}, !- Handle
  {26603f9c-dd7b-4320-a4a6-7e3f8fcc8ac0}; !- HVAC Component

OS:PortList,
  {b5ecee43-b05d-4c0f-9e36-b47d3719d0a0}, !- Handle
  {26603f9c-dd7b-4320-a4a6-7e3f8fcc8ac0}, !- HVAC Component
  {bcd24f31-ef2b-4723-b06d-4aebe0b9d162}; !- Port 1

OS:Sizing:Zone,
  {669c1fb8-8165-48f4-aab8-23fdf65fabd1}, !- Handle
  {26603f9c-dd7b-4320-a4a6-7e3f8fcc8ac0}, !- Zone or ZoneList Name
  SupplyAirTemperature,                   !- Zone Cooling Design Supply Air Temperature Input Method
  14,                                     !- Zone Cooling Design Supply Air Temperature {C}
  11.11,                                  !- Zone Cooling Design Supply Air Temperature Difference {deltaC}
  SupplyAirTemperature,                   !- Zone Heating Design Supply Air Temperature Input Method
  40,                                     !- Zone Heating Design Supply Air Temperature {C}
  11.11,                                  !- Zone Heating Design Supply Air Temperature Difference {deltaC}
  0.0085,                                 !- Zone Cooling Design Supply Air Humidity Ratio {kg-H2O/kg-air}
  0.008,                                  !- Zone Heating Design Supply Air Humidity Ratio {kg-H2O/kg-air}
  ,                                       !- Zone Heating Sizing Factor
  ,                                       !- Zone Cooling Sizing Factor
  DesignDay,                              !- Cooling Design Air Flow Method
  ,                                       !- Cooling Design Air Flow Rate {m3/s}
  ,                                       !- Cooling Minimum Air Flow per Zone Floor Area {m3/s-m2}
  ,                                       !- Cooling Minimum Air Flow {m3/s}
  ,                                       !- Cooling Minimum Air Flow Fraction
  DesignDay,                              !- Heating Design Air Flow Method
  ,                                       !- Heating Design Air Flow Rate {m3/s}
  ,                                       !- Heating Maximum Air Flow per Zone Floor Area {m3/s-m2}
  ,                                       !- Heating Maximum Air Flow {m3/s}
  ,                                       !- Heating Maximum Air Flow Fraction
  No,                                     !- Account for Dedicated Outdoor Air System
  NeutralSupplyAir,                       !- Dedicated Outdoor Air System Control Strategy
  autosize,                               !- Dedicated Outdoor Air Low Setpoint Temperature for Design {C}
  autosize,                               !- Dedicated Outdoor Air High Setpoint Temperature for Design {C}
  Sensible Load Only No Latent Load,      !- Zone Load Sizing Method
  HumidityRatioDifference,                !- Zone Latent Cooling Design Supply Air Humidity Ratio Input Method
  ,                                       !- Zone Dehumidification Design Supply Air Humidity Ratio {kgWater/kgDryAir}
  0.005,                                  !- Zone Cooling Design Supply Air Humidity Ratio Difference {kgWater/kgDryAir}
  HumidityRatioDifference,                !- Zone Latent Heating Design Supply Air Humidity Ratio Input Method
  ,                                       !- Zone Humidification Design Supply Air Humidity Ratio {kgWater/kgDryAir}
  0.005,                                  !- Zone Humidification Design Supply Air Humidity Ratio Difference {kgWater/kgDryAir}
  ,                                       !- Zone Humidistat Dehumidification Set Point Schedule Name
  ,                                       !- Zone Humidistat Humidification Set Point Schedule Name
  ,                                       !- Design Zone Air Distribution Effectiveness in Cooling Mode
  ,                                       !- Design Zone Air Distribution Effectiveness in Heating Mode
  ,                                       !- Design Zone Secondary Recirculation Fraction {dimensionless}
  ,                                       !- Design Minimum Zone Ventilation Efficiency {dimensionless}
  Coincident;                             !- Sizing Option

OS:ZoneHVAC:EquipmentList,
  {c2d79d4d-95d8-44f9-9f14-1655dc30a655}, !- Handle
  Zone HVAC Equipment List 1,             !- Name
  {26603f9c-dd7b-4320-a4a6-7e3f8fcc8ac0}, !- Thermal Zone
  ,                                       !- Load Distribution Scheme
  {542bdb4b-a7f1-4fd8-97bf-f547c3f8d514}, !- Zone Equipment 1
  1,                                      !- Zone Equipment Cooling Sequence 1
  1,                                      !- Zone Equipment Heating or No-Load Sequence 1
  {cccf3343-c4cc-4457-86bd-60ac13d989b6}, !- Zone Equipment Sequential Cooling Fraction Schedule Name 1
  {0f43cfc9-93a4-445f-97b2-e8552e8c5f49}, !- Zone Equipment Sequential Heating Fraction Schedule Name 1
  {016d3fc7-7b42-4981-91c5-1e8f94a0f688}, !- Zone Equipment 2
  2,                                      !- Zone Equipment Cooling Sequence 2
  2,                                      !- Zone Equipment Heating or No-Load Sequence 2
  {735af0d6-99aa-40db-8dab-3ffa6e0a8f41}, !- Zone Equipment Sequential Cooling Fraction Schedule Name 2
  {2c373493-3cfa-4b52-9504-837f0f51b8ca}; !- Zone Equipment Sequential Heating Fraction Schedule Name 2

OS:AdditionalProperties,
  {e180a15b-c212-422c-9aed-bd668dae58d7}, !- Handle
  {26603f9c-dd7b-4320-a4a6-7e3f8fcc8ac0}, !- Object Name
  ObjectType,                             !- Feature Name 1
  String,                                 !- Feature Data Type 1
  conditioned space;                      !- Feature Value 1

OS:Space,
  {35f0fc95-56da-4a24-85ed-d1c60d4a9d09}, !- Handle
  conditioned space 1,                    !- Name
  ,                                       !- Space Type Name
  ,                                       !- Default Construction Set Name
  ,                                       !- Default Schedule Set Name
  ,                                       !- Direction of Relative North {deg}
  ,                                       !- X Origin {m}
  ,                                       !- Y Origin {m}
  ,                                       !- Z Origin {m}
  ,                                       !- Building Story Name
  {26603f9c-dd7b-4320-a4a6-7e3f8fcc8ac0}, !- Thermal Zone Name
  ,                                       !- Part of Total Floor Area
  ,                                       !- Design Specification Outdoor Air Object Name
  ,                                       !- Building Unit Name
  692.06373070848;                        !- Volume {m3}

OS:Schedule:Ruleset,
  {b5d5e8ed-c169-4102-81d8-f620ce522263}, !- Handle
  heating setpoint,                       !- Name
  {ec164d64-af1d-4c84-8008-fc039b5d8346}, !- Schedule Type Limits Name
  {1f496112-c4f1-45f3-a2f4-b906f5cdace6}; !- Default Day Schedule Name

OS:Schedule:Day,
  {1f496112-c4f1-45f3-a2f4-b906f5cdace6}, !- Handle
  heating setpoint default day,           !- Name
  {ec164d64-af1d-4c84-8008-fc039b5d8346}, !- Schedule Type Limits Name
  ,                                       !- Interpolate to Timestep
  24,                                     !- Hour 1
  0,                                      !- Minute 1
  0;                                      !- Value Until Time 1

OS:Schedule:Rule,
  {6a5187ab-ab11-4bc0-8140-f6599d06ef73}, !- Handle
  heating setpoint allday rule,           !- Name
  {b5d5e8ed-c169-4102-81d8-f620ce522263}, !- Schedule Ruleset Name
  0,                                      !- Rule Order
  {ce45755b-08c3-4c23-bf04-638dddb45efe}, !- Day Schedule Name
  Yes,                                    !- Apply Sunday
  Yes,                                    !- Apply Monday
  Yes,                                    !- Apply Tuesday
  Yes,                                    !- Apply Wednesday
  Yes,                                    !- Apply Thursday
  Yes,                                    !- Apply Friday
  Yes,                                    !- Apply Saturday
  DateRange,                              !- Date Specification Type
  1,                                      !- Start Month
  1,                                      !- Start Day
  12,                                     !- End Month
  31;                                     !- End Day

OS:Schedule:Day,
  {ce45755b-08c3-4c23-bf04-638dddb45efe}, !- Handle
  heating setpoint day,                   !- Name
  {ec164d64-af1d-4c84-8008-fc039b5d8346}, !- Schedule Type Limits Name
  ,                                       !- Interpolate to Timestep
  24,                                     !- Hour 1
  0,                                      !- Minute 1
  20;                                     !- Value Until Time 1

OS:Schedule:Ruleset,
  {98361347-ff1c-41b8-84f3-5c9d50b9f4ad}, !- Handle
  cooling setpoint,                       !- Name
  {ec164d64-af1d-4c84-8008-fc039b5d8346}, !- Schedule Type Limits Name
  {5ae95a72-d3e4-42ef-a02b-34bebb3c75d5}; !- Default Day Schedule Name

OS:Schedule:Day,
  {5ae95a72-d3e4-42ef-a02b-34bebb3c75d5}, !- Handle
  cooling setpoint default day,           !- Name
  {ec164d64-af1d-4c84-8008-fc039b5d8346}, !- Schedule Type Limits Name
  ,                                       !- Interpolate to Timestep
  24,                                     !- Hour 1
  0,                                      !- Minute 1
  0;                                      !- Value Until Time 1

OS:Schedule:Rule,
  {62501c3b-374a-4410-a530-741c4d2f2144}, !- Handle
  cooling setpoint allday rule,           !- Name
  {98361347-ff1c-41b8-84f3-5c9d50b9f4ad}, !- Schedule Ruleset Name
  0,                                      !- Rule Order
  {8d711444-8045-45ca-8c8d-0a1fadea584b}, !- Day Schedule Name
  Yes,                                    !- Apply Sunday
  Yes,                                    !- Apply Monday
  Yes,                                    !- Apply Tuesday
  Yes,                                    !- Apply Wednesday
  Yes,                                    !- Apply Thursday
  Yes,                                    !- Apply Friday
  Yes,                                    !- Apply Saturday
  DateRange,                              !- Date Specification Type
  1,                                      !- Start Month
  1,                                      !- Start Day
  12,                                     !- End Month
  31;                                     !- End Day

OS:Schedule:Day,
  {8d711444-8045-45ca-8c8d-0a1fadea584b}, !- Handle
  cooling setpoint day,                   !- Name
  {ec164d64-af1d-4c84-8008-fc039b5d8346}, !- Schedule Type Limits Name
  ,                                       !- Interpolate to Timestep
  24,                                     !- Hour 1
  0,                                      !- Minute 1
  25.5555555555556;                       !- Value Until Time 1

OS:ThermostatSetpoint:DualSetpoint,
  {e717b984-23c3-4d5f-abd7-da5fa22d9160}, !- Handle
  conditioned space temperature setpoint, !- Name
  {b5d5e8ed-c169-4102-81d8-f620ce522263}, !- Heating Setpoint Temperature Schedule Name
  {98361347-ff1c-41b8-84f3-5c9d50b9f4ad}, !- Cooling Setpoint Temperature Schedule Name
  0;                                      !- Temperature Difference Between Cutout And Setpoint {deltaC}

OS:ScheduleTypeLimits,
  {ec164d64-af1d-4c84-8008-fc039b5d8346}, !- Handle
  Temperature,                            !- Name
  ,                                       !- Lower Limit Value
  ,                                       !- Upper Limit Value
  Continuous,                             !- Numeric Type
  Temperature;                            !- Unit Type

OS:Surface,
  {14e5dc6e-dcec-4ebe-8d10-8aef5a460d2c}, !- Handle
  Roof1,                                  !- Name
  RoofCeiling,                            !- Surface Type
  {d5bf037d-caa9-445e-96d2-783d5e663256}, !- Construction Name
  {f0fb369a-37cc-4c21-8d9f-7b42c63786e1}, !- Space Name
  Outdoors,                               !- Outside Boundary Condition
  ,                                       !- Outside Boundary Condition Object
  SunExposed,                             !- Sun Exposure
  WindExposed,                            !- Wind Exposure
  ,                                       !- View Factor to Ground
  ,                                       !- Number of Vertices
  -26.9347048849634, 58.0557891618865, 2.4384, !- X,Y,Z Vertex 1 {m}
  -26.9347048849634, 46.7895631136661, 8.0715130241102, !- X,Y,Z Vertex 2 {m}
  -14.3386812381136, 46.7895631136661, 8.0715130241102, !- X,Y,Z Vertex 3 {m}
  -14.3386812381136, 58.0557891618865, 2.4384; !- X,Y,Z Vertex 4 {m}

OS:AdditionalProperties,
  {bfd5eae9-7832-4aa6-973f-a57b958ed88b}, !- Handle
  {14e5dc6e-dcec-4ebe-8d10-8aef5a460d2c}, !- Object Name
  Length,                                 !- Feature Name 1
  Double,                                 !- Feature Data Type 1
  41.325536899113608,                     !- Feature Value 1
  Width,                                  !- Feature Name 2
  Double,                                 !- Feature Data Type 2
  41.325536899113601,                     !- Feature Value 2
  Azimuth,                                !- Feature Name 3
  Integer,                                !- Feature Data Type 3
  0,                                      !- Feature Value 3
  Tilt,                                   !- Feature Name 4
  Double,                                 !- Feature Data Type 4
  0.5,                                    !- Feature Value 4
  SurfaceType,                            !- Feature Name 5
  String,                                 !- Feature Data Type 5
  Roof;                                   !- Feature Value 5

OS:ThermalZone,
  {fc9d19ab-cf51-458d-9f0d-31b7b50cac13}, !- Handle
  attic - vented,                         !- Name
  1,                                      !- Multiplier
  ,                                       !- Ceiling Height {m}
  356.389957095237,                       !- Volume {m3}
  ,                                       !- Floor Area {m2}
  ,                                       !- Zone Inside Convection Algorithm
  ,                                       !- Zone Outside Convection Algorithm
  ,                                       !- Zone Conditioning Equipment List Name
  {7c5d0f0c-c5e3-48dd-bc5e-e0652528977d}, !- Zone Air Inlet Port List
  {71803b5c-e099-4d82-a1a6-6f8da546312e}, !- Zone Air Exhaust Port List
  {330790cf-8391-44b0-bdf2-85c72f2db594}, !- Zone Air Node Name
  {86539f70-b43e-4ac7-bb7e-9afa2b6aeb65}, !- Zone Return Air Port List
  ,                                       !- Primary Daylighting Control Name
  ,                                       !- Fraction of Zone Controlled by Primary Daylighting Control
  ,                                       !- Secondary Daylighting Control Name
  ,                                       !- Fraction of Zone Controlled by Secondary Daylighting Control
  ,                                       !- Illuminance Map Name
  ,                                       !- Group Rendering Name
  ,                                       !- Thermostat Name
  No;                                     !- Use Ideal Air Loads

OS:Node,
  {8b957042-052f-4413-add5-fb6397316fed}, !- Handle
  Node 2,                                 !- Name
  {330790cf-8391-44b0-bdf2-85c72f2db594}, !- Inlet Port
  ;                                       !- Outlet Port

OS:Connection,
  {330790cf-8391-44b0-bdf2-85c72f2db594}, !- Handle
  {fc9d19ab-cf51-458d-9f0d-31b7b50cac13}, !- Source Object
  11,                                     !- Outlet Port
  {8b957042-052f-4413-add5-fb6397316fed}, !- Target Object
  2;                                      !- Inlet Port

OS:PortList,
  {7c5d0f0c-c5e3-48dd-bc5e-e0652528977d}, !- Handle
  {fc9d19ab-cf51-458d-9f0d-31b7b50cac13}; !- HVAC Component

OS:PortList,
  {71803b5c-e099-4d82-a1a6-6f8da546312e}, !- Handle
  {fc9d19ab-cf51-458d-9f0d-31b7b50cac13}; !- HVAC Component

OS:PortList,
  {86539f70-b43e-4ac7-bb7e-9afa2b6aeb65}, !- Handle
  {fc9d19ab-cf51-458d-9f0d-31b7b50cac13}; !- HVAC Component

OS:Sizing:Zone,
  {5f5abf2b-2766-4ad9-98ba-eac0b27fd663}, !- Handle
  {fc9d19ab-cf51-458d-9f0d-31b7b50cac13}, !- Zone or ZoneList Name
  SupplyAirTemperature,                   !- Zone Cooling Design Supply Air Temperature Input Method
  14,                                     !- Zone Cooling Design Supply Air Temperature {C}
  11.11,                                  !- Zone Cooling Design Supply Air Temperature Difference {deltaC}
  SupplyAirTemperature,                   !- Zone Heating Design Supply Air Temperature Input Method
  40,                                     !- Zone Heating Design Supply Air Temperature {C}
  11.11,                                  !- Zone Heating Design Supply Air Temperature Difference {deltaC}
  0.0085,                                 !- Zone Cooling Design Supply Air Humidity Ratio {kg-H2O/kg-air}
  0.008,                                  !- Zone Heating Design Supply Air Humidity Ratio {kg-H2O/kg-air}
  ,                                       !- Zone Heating Sizing Factor
  ,                                       !- Zone Cooling Sizing Factor
  DesignDay,                              !- Cooling Design Air Flow Method
  ,                                       !- Cooling Design Air Flow Rate {m3/s}
  ,                                       !- Cooling Minimum Air Flow per Zone Floor Area {m3/s-m2}
  ,                                       !- Cooling Minimum Air Flow {m3/s}
  ,                                       !- Cooling Minimum Air Flow Fraction
  DesignDay,                              !- Heating Design Air Flow Method
  ,                                       !- Heating Design Air Flow Rate {m3/s}
  ,                                       !- Heating Maximum Air Flow per Zone Floor Area {m3/s-m2}
  ,                                       !- Heating Maximum Air Flow {m3/s}
  ,                                       !- Heating Maximum Air Flow Fraction
  No,                                     !- Account for Dedicated Outdoor Air System
  NeutralSupplyAir,                       !- Dedicated Outdoor Air System Control Strategy
  autosize,                               !- Dedicated Outdoor Air Low Setpoint Temperature for Design {C}
  autosize,                               !- Dedicated Outdoor Air High Setpoint Temperature for Design {C}
  Sensible Load Only No Latent Load,      !- Zone Load Sizing Method
  HumidityRatioDifference,                !- Zone Latent Cooling Design Supply Air Humidity Ratio Input Method
  ,                                       !- Zone Dehumidification Design Supply Air Humidity Ratio {kgWater/kgDryAir}
  0.005,                                  !- Zone Cooling Design Supply Air Humidity Ratio Difference {kgWater/kgDryAir}
  HumidityRatioDifference,                !- Zone Latent Heating Design Supply Air Humidity Ratio Input Method
  ,                                       !- Zone Humidification Design Supply Air Humidity Ratio {kgWater/kgDryAir}
  0.005,                                  !- Zone Humidification Design Supply Air Humidity Ratio Difference {kgWater/kgDryAir}
  ,                                       !- Zone Humidistat Dehumidification Set Point Schedule Name
  ,                                       !- Zone Humidistat Humidification Set Point Schedule Name
  ,                                       !- Design Zone Air Distribution Effectiveness in Cooling Mode
  ,                                       !- Design Zone Air Distribution Effectiveness in Heating Mode
  ,                                       !- Design Zone Secondary Recirculation Fraction {dimensionless}
  ,                                       !- Design Minimum Zone Ventilation Efficiency {dimensionless}
  Coincident;                             !- Sizing Option

OS:ZoneHVAC:EquipmentList,
  {2af17575-226c-420d-83c5-626b42b9c2c0}, !- Handle
  Zone HVAC Equipment List 2,             !- Name
  {fc9d19ab-cf51-458d-9f0d-31b7b50cac13}; !- Thermal Zone

OS:AdditionalProperties,
  {c84dbc0b-b4ac-4b9f-8b35-c66306e24b86}, !- Handle
  {fc9d19ab-cf51-458d-9f0d-31b7b50cac13}, !- Object Name
  ObjectType,                             !- Feature Name 1
  String,                                 !- Feature Data Type 1
  attic - vented;                         !- Feature Value 1

OS:Space,
  {f0fb369a-37cc-4c21-8d9f-7b42c63786e1}, !- Handle
  attic - vented 1,                       !- Name
  ,                                       !- Space Type Name
  ,                                       !- Default Construction Set Name
  ,                                       !- Default Schedule Set Name
  ,                                       !- Direction of Relative North {deg}
  ,                                       !- X Origin {m}
  ,                                       !- Y Origin {m}
  ,                                       !- Z Origin {m}
  ,                                       !- Building Story Name
  {fc9d19ab-cf51-458d-9f0d-31b7b50cac13}, !- Thermal Zone Name
  ,                                       !- Part of Total Floor Area
  ,                                       !- Design Specification Outdoor Air Object Name
  ,                                       !- Building Unit Name
  356.389957095237;                       !- Volume {m3}

OS:Material,
  {426edc5c-5ac3-4ef8-8a49-6ab92a71c9da}, !- Handle
  asphalt or fiberglass shingles,         !- Name