
OS:Version,
  {ef6c0001-614e-46cd-b369-9387a394cbaf}, !- Handle
  3.10.0;                                 !- Version Identifier

OS:SimulationControl,
  {aafd1fd5-a635-49c1-bfa0-cba016695605}, !- Handle
  ,                                       !- Do Zone Sizing Calculation
  ,                                       !- Do System Sizing Calculation
  ,                                       !- Do Plant Sizing Calculation
  No;                                     !- Run Simulation for Sizing Periods

OS:Timestep,
  {12973db3-046d-402e-aed4-2a5a54661c11}, !- Handle
  1;                                      !- Number of Timesteps per Hour

OS:ShadowCalculation,
  {8c4296f4-d1ee-42b5-aa19-ef12b0b6479b}, !- Handle
  PolygonClipping,                        !- Shading Calculation Method
  ,                                       !- Shading Calculation Update Frequency Method
  20,                                     !- Shading Calculation Update Frequency
  200,                                    !- Maximum Figures in Shadow Overlap Calculations
  ,                                       !- Polygon Clipping Algorithm
  512,                                    !- Pixel Counting Resolution
  ,                                       !- Sky Diffuse Modeling Algorithm
  No,                                     !- Output External Shading Calculation Results
  No,                                     !- Disable Self-Shading Within Shading Zone Groups
  No;                                     !- Disable Self-Shading From Shading Zone Groups to Other Zones

OS:SurfaceConvectionAlgorithm:Outside,
  {fcb90e2f-b6c1-4f55-aba1-7339fd8ef7f8}, !- Handle
  DOE-2;                                  !- Algorithm

OS:SurfaceConvectionAlgorithm:Inside,
  {d58c8db4-bee6-4634-9649-9a469548e465}, !- Handle
  TARP;                                   !- Algorithm

OS:ZoneCapacitanceMultiplier:ResearchSpecial,
  {3d8c5e7f-37d4-4312-a70b-91ba32c27773}, !- Handle
  7,                                      !- Temperature Capacity Multiplier
  15,                                     !- Humidity Capacity Multiplier
  ;                                       !- Carbon Dioxide Capacity Multiplier

OS:ConvergenceLimits,
  {c6c0936d-6bdf-45d9-9ed2-d63a20c3fc9c}, !- Handle
  0;                                      !- Minimum System Timestep {minutes}

OS:RunPeriod,
  {2c59b244-15c0-4bc5-9321-6153a00e8a67}, !- Handle
  Run Period 1,                           !- Name
  1,                                      !- Begin Month
  1,                                      !- Begin Day of Month
  12,                                     !- End Month
  31,                                     !- End Day of Month
  ,                                       !- Use Weather File Holidays and Special Days
  ,                                       !- Use Weather File Daylight Saving Period
  ,                                       !- Apply Weekend Holiday Rule
  ,                                       !- Use Weather File Rain Indicators
  ,                                       !- Use Weather File Snow Indicators
  ;                                       !- Number of Times Runperiod to be Repeated

OS:PerformancePrecisionTradeoffs,
  {c3acee7f-fa57-4850-891f-65202b1a3dbd}, !- Handle
  ,                                       !- Use Coil Direct Solutions
  CarrollMRT;                             !- Zone Radiant Exchange Algorithm

OS:WeatherFile,
  {c2db8ffc-108c-4d41-b2b7-9229601e91e7}, !- Handle
  Buffalo Niagara Intl Ap,                !- City
  NY,                                     !- State Province Region
  USA,                                    !- Country
  TMY3,                                   !- Data Source
  725280,                                 !- WMO Number
  42.93,                                  !- Latitude {deg}
  -78.73,                                 !- Longitude {deg}
  -5,                                     !- Time Zone {hr}
  215,                                    !- Elevation {m}
  /Users/nmoore/github/urbanopt-example-geojson-project/example_project/weather/USA_NY_Buffalo-Greater.Buffalo.Intl.AP.725280_TMY3.epw, !- Url
  6B50E0FF,                               !- Checksum
  ,                                       !- Start Date Actual Year
  Sunday;                                 !- Start Day of Week

OS:YearDescription,
  {5d60a465-aa2a-4530-a1bd-3bdb101801bd}, !- Handle
  2007,                                   !- Calendar Year
  ,                                       !- Day of Week for Start Day
  ;                                       !- Is Leap Year

OS:Site,
  {20290f08-c822-46b0-82de-92267555a8ae}, !- Handle
  Buffalo Niagara Intl Ap_NY,             !- Name
  42.93,                                  !- Latitude {deg}
  -78.73,                                 !- Longitude {deg}
  -5,                                     !- Time Zone {hr}
  215,                                    !- Elevation {m}
  Suburbs,                                !- Terrain
  Yes;                                    !- Keep Site Location Information

OS:RunPeriodControl:DaylightSavingTime,
  {52739c49-d0a3-40d8-b020-e7c6efe13845}, !- Handle
  Mar 12,                                 !- Start Date
  Nov 5;                                  !- End Date

OS:Site:GroundTemperature:Shallow,
  {4e0f0688-f230-4e11-9a54-4b7ff8a3fdbe}, !- Handle
  4.30207395723828,                       !- January Surface Ground Temperature {C}
  2.29327249652502,                       !- February Surface Ground Temperature {C}
  2.13240047156047,                       !- March Surface Ground Temperature {C}
  3.08567940719286,                       !- April Surface Ground Temperature {C}
  6.91256312497526,                       !- May Surface Ground Temperature {C}
  10.7216195949507,                       !- June Surface Ground Temperature {C}
  14.0238679822574,                       !- July Surface Ground Temperature {C}
  16.1157611184724,                       !- August Surface Ground Temperature {C}
  16.2934789303462,                       !- September Surface Ground Temperature {C}
  14.5920754632847,                       !- October Surface Ground Temperature {C}
  11.374036348653,                        !- November Surface Ground Temperature {C}
  7.68182621661674;                       !- December Surface Ground Temperature {C}

OS:ThermalZone,
  {b79973fc-af59-48fc-85b4-399adf439d98}, !- Handle
  conditioned space,                      !- Name
  1,                                      !- Multiplier
  ,                                       !- Ceiling Height {m}
  692.06373070848,                        !- Volume {m3}
  ,                                       !- Floor Area {m2}
  ,                                       !- Zone Inside Convection Algorithm
  ,                                       !- Zone Outside Convection Algorithm
  ,                                       !- Zone Conditioning Equipment List Name
  {0ea3a360-887b-4abe-9fa8-be6ed64229d9}, !- Zone Air Inlet Port List
  {8ae7df0e-dadb-4f31-a873-28ce99e7b565}, !- Zone Air Exhaust Port List
  {d21d037e-aee2-4884-85c6-1bec704f27a0}, !- Zone Air Node Name
  {f9bb5e58-2de1-4728-bd31-a75ce0ecc3f9}, !- Zone Return Air Port List
  ,                                       !- Primary Daylighting Control Name
  ,                                       !- Fraction of Zone Controlled by Primary Daylighting Control
  ,                                       !- Secondary Daylighting Control Name
  ,                                       !- Fraction of Zone Controlled by Secondary Daylighting Control
  ,                                       !- Illuminance Map Name
  ,                                       !- Group Rendering Name
  {a6fdd682-18bc-4bac-9b41-920cb8cb2e51}, !- Thermostat Name
  No;                                     !- Use Ideal Air Loads

OS:Node,
  {195aa124-1f00-4ba0-8af5-7792973c0e46}, !- Handle
  Node 1,                                 !- Name
  {d21d037e-aee2-4884-85c6-1bec704f27a0}, !- Inlet Port
  ;                                       !- Outlet Port

OS:Connection,
  {d21d037e-aee2-4884-85c6-1bec704f27a0}, !- Handle
  {b79973fc-af59-48fc-85b4-399adf439d98}, !- Source Object
  11,                                     !- Outlet Port
  {195aa124-1f00-4ba0-8af5-7792973c0e46}, !- Target Object
  2;                                      !- Inlet Port

OS:PortList,
  {0ea3a360-887b-4abe-9fa8-be6ed64229d9}, !- Handle
  {b79973fc-af59-48fc-85b4-399adf439d98}, !- HVAC Component
  {cede1f81-55a2-4e5a-893f-d5d88ed28520}; !- Port 1

OS:PortList,
  {8ae7df0e-dadb-4f31-a873-28ce99e7b565}, !- Handle
  {b79973fc-af59-48fc-85b4-399adf439d98}; !- HVAC Component

OS:PortList,
  {f9bb5e58-2de1-4728-bd31-a75ce0ecc3f9}, !- Handle
  {b79973fc-af59-48fc-85b4-399adf439d98}, !- HVAC Component
  {21d51f68-a271-4279-9f1f-56b92df9eec6}; !- Port 1

OS:Sizing:Zone,
  {899ae391-5071-4a3d-b9be-005598afd55f}, !- Handle
  {b79973fc-af59-48fc-85b4-399adf439d98}, !- Zone or ZoneList Name
  SupplyAirTemperature,                   !- Zone Cooling Design Supply Air Temperature Input Method
  14,                                     !- Zone Cooling Design Supply Air Temperature {C}
  11.11,                                  !- Zone Cooling Design Supply Air Temperature Difference {deltaC}
  SupplyAirTemperature,                   !- Zone Heating Design Supply Air Temperature Input Method
  40,                                     !- Zone Heating Design Supply Air Temperature {C}
  11.11,                                  !- Zone Heating Design Supply Air Temperature Difference {deltaC}
  0.0085,                                 !- Zone Cooling Design Supply Air Humidity Ratio {kg-H2O/kg-air}
  0.008,                                  !- Zone Heating Design Supply Air Humidity Ratio {kg-H2O/kg-air}
  ,                                       !- Zone Heating Sizing Factor
  ,                                       !- Zone Cooling Sizing Factor
  DesignDay,                              !- Cooling Design Air Flow Method
  ,                                       !- Cooling Design Air Flow Rate {m3/s}
  ,                                       !- Cooling Minimum Air Flow per Zone Floor Area {m3/s-m2}
  ,                                       !- Cooling Minimum Air Flow {m3/s}
  ,                                       !- Cooling Minimum Air Flow Fraction
  DesignDay,                              !- Heating Design Air Flow Method
  ,                                       !- Heating Design Air Flow Rate {m3/s}
  ,                                       !- Heating Maximum Air Flow per Zone Floor Area {m3/s-m2}
  ,                                       !- Heating Maximum Air Flow {m3/s}
  ,                                       !- Heating Maximum Air Flow Fraction
  No,                                     !- Account for Dedicated Outdoor Air System
  NeutralSupplyAir,                       !- Dedicated Outdoor Air System Control Strategy
  autosize,                               !- Dedicated Outdoor Air Low Setpoint Temperature for Design {C}
  autosize,                               !- Dedicated Outdoor Air High Setpoint Temperature for Design {C}
  Sensible Load Only No Latent Load,      !- Zone Load Sizing Method
  HumidityRatioDifference,                !- Zone Latent Cooling Design Supply Air Humidity Ratio Input Method
  ,                                       !- Zone Dehumidification Design Supply Air Humidity Ratio {kgWater/kgDryAir}
  0.005,                                  !- Zone Cooling Design Supply Air Humidity Ratio Difference {kgWater/kgDryAir}
  HumidityRatioDifference,                !- Zone Latent Heating Design Supply Air Humidity Ratio Input Method
  ,                                       !- Zone Humidification Design Supply Air Humidity Ratio {kgWater/kgDryAir}
  0.005,                                  !- Zone Humidification Design Supply Air Humidity Ratio Difference {kgWater/kgDryAir}
  ,                                       !- Zone Humidistat Dehumidification Set Point Schedule Name
  ,                                       !- Zone Humidistat Humidification Set Point Schedule Name
  ,                                       !- Design Zone Air Distribution Effectiveness in Cooling Mode
  ,                                       !- Design Zone Air Distribution Effectiveness in Heating Mode
  ,                                       !- Design Zone Secondary Recirculation Fraction {dimensionless}
  ,                                       !- Design Minimum Zone Ventilation Efficiency {dimensionless}
  Coincident;                             !- Sizing Option

OS:ZoneHVAC:EquipmentList,
  {8408425e-fa8b-4cf6-8e86-334ab58bbae2}, !- Handle
  Zone HVAC Equipment List 1,             !- Name
  {b79973fc-af59-48fc-85b4-399adf439d98}, !- Thermal Zone
  ,                                       !- Load Distribution Scheme
  {aecd34f3-de8d-4c0d-b884-eca543c0fb74}, !- Zone Equipment 1
  1,                                      !- Zone Equipment Cooling Sequence 1
  1,                                      !- Zone Equipment Heating or No-Load Sequence 1
  {524c70ba-1f5e-4daa-8166-2be1c6a07ff5}, !- Zone Equipment Sequential Cooling Fraction Schedule Name 1
  {b13f92b3-93db-41db-8953-ca8c2d238acc}; !- Zone Equipment Sequential Heating Fraction Schedule Name 1

OS:AdditionalProperties,
  {59b05aa7-b4ab-407a-9847-e5e53e20fef0}, !- Handle
  {b79973fc-af59-48fc-85b4-399adf439d98}, !- Object Name
  ObjectType,                             !- Feature Name 1
  String,                                 !- Feature Data Type 1
  conditioned space;                      !- Feature Value 1

OS:Space,
  {1a302399-c2f4-411e-a202-7da099f0f08e}, !- Handle
  conditioned space 1,                    !- Name
  ,                                       !- Space Type Name
  ,                                       !- Default Construction Set Name
  ,                                       !- Default Schedule Set Name
  ,                                       !- Direction of Relative North {deg}
  ,                                       !- X Origin {m}
  ,                                       !- Y Origin {m}
  ,                                       !- Z Origin {m}
  ,                                       !- Building Story Name
  {b79973fc-af59-48fc-85b4-399adf439d98}, !- Thermal Zone Name
  ,                                       !- Part of Total Floor Area
  ,                                       !- Design Specification Outdoor Air Object Name
  ,                                       !- Building Unit Name
  692.06373070848;                        !- Volume {m3}

OS:Schedule:Ruleset,
  {97ae69cb-ac07-42bc-9876-de0ef1301421}, !- Handle
  heating setpoint,                       !- Name
  {eec4f269-2d03-4cc9-b36a-94c179fc6f60}, !- Schedule Type Limits Name
  {f4b84e76-a8db-40d1-8c69-883f831a312f}; !- Default Day Schedule Name

OS:Schedule:Day,
  {f4b84e76-a8db-40d1-8c69-883f831a312f}, !- Handle
  heating setpoint default day,           !- Name
  {eec4f269-2d03-4cc9-b36a-94c179fc6f60}, !- Schedule Type Limits Name
  ,                                       !- Interpolate to Timestep
  24,                                     !- Hour 1
  0,                                      !- Minute 1
  0;                                      !- Value Until Time 1

OS:Schedule:Rule,
  {539a99e4-2a35-4ca1-8437-98a84b29c618}, !- Handle
  heating setpoint allday rule,           !- Name
  {97ae69cb-ac07-42bc-9876-de0ef1301421}, !- Schedule Ruleset Name
  0,                                      !- Rule Order
  {9d6a5777-ae76-4c82-b9b8-97ea7cd05b20}, !- Day Schedule Name
  Yes,                                    !- Apply Sunday
  Yes,                                    !- Apply Monday
  Yes,                                    !- Apply Tuesday
  Yes,                                    !- Apply Wednesday
  Yes,                                    !- Apply Thursday
  Yes,                                    !- Apply Friday
  Yes,                                    !- Apply Saturday
  DateRange,                              !- Date Specification Type
  1,                                      !- Start Month
  1,                                      !- Start Day
  12,                                     !- End Month
  31;                                     !- End Day

OS:Schedule:Day,
  {9d6a5777-ae76-4c82-b9b8-97ea7cd05b20}, !- Handle
  heating setpoint day,                   !- Name
  {eec4f269-2d03-4cc9-b36a-94c179fc6f60}, !- Schedule Type Limits Name
  ,                                       !- Interpolate to Timestep
  24,                                     !- Hour 1
  0,                                      !- Minute 1
  20;                                     !- Value Until Time 1

OS:Schedule:Ruleset,
  {c63938eb-fa8c-4a5a-b6e5-b6ec16434ab4}, !- Handle
  cooling setpoint,                       !- Name
  {eec4f269-2d03-4cc9-b36a-94c179fc6f60}, !- Schedule Type Limits Name
  {79c912ec-137c-4667-a3f3-1bd91fefd017}; !- Default Day Schedule Name

OS:Schedule:Day,
  {79c912ec-137c-4667-a3f3-1bd91fefd017}, !- Handle
  cooling setpoint default day,           !- Name
  {eec4f269-2d03-4cc9-b36a-94c179fc6f60}, !- Schedule Type Limits Name
  ,                                       !- Interpolate to Timestep
  24,                                     !- Hour 1
  0,                                      !- Minute 1
  0;                                      !- Value Until Time 1

OS:Schedule:Rule,
  {0651317e-0383-47e1-aa8b-bb3615536540}, !- Handle
  cooling setpoint allday rule,           !- Name
  {c63938eb-fa8c-4a5a-b6e5-b6ec16434ab4}, !- Schedule Ruleset Name
  0,                                      !- Rule Order
  {cde29d24-de0e-4c33-89a1-4cd1593e3fb2}, !- Day Schedule Name
  Yes,                                    !- Apply Sunday
  Yes,                                    !- Apply Monday
  Yes,                                    !- Apply Tuesday
  Yes,                                    !- Apply Wednesday
  Yes,                                    !- Apply Thursday
  Yes,                                    !- Apply Friday
  Yes,                                    !- Apply Saturday
  DateRange,                              !- Date Specification Type
  1,                                      !- Start Month
  1,                                      !- Start Day
  12,                                     !- End Month
  31;                                     !- End Day

OS:Schedule:Day,
  {cde29d24-de0e-4c33-89a1-4cd1593e3fb2}, !- Handle
  cooling setpoint day,                   !- Name
  {eec4f269-2d03-4cc9-b36a-94c179fc6f60}, !- Schedule Type Limits Name
  ,                                       !- Interpolate to Timestep
  24,                                     !- Hour 1
  0,                                      !- Minute 1
  25.5555555555556;                       !- Value Until Time 1

OS:ThermostatSetpoint:DualSetpoint,
  {a6fdd682-18bc-4bac-9b41-920cb8cb2e51}, !- Handle
  conditioned space temperature setpoint, !- Name
  {97ae69cb-ac07-42bc-9876-de0ef1301421}, !- Heating Setpoint Temperature Schedule Name
  {c63938eb-fa8c-4a5a-b6e5-b6ec16434ab4}, !- Cooling Setpoint Temperature Schedule Name
  0;                                      !- Temperature Difference Between Cutout And Setpoint {deltaC}

OS:ScheduleTypeLimits,
  {eec4f269-2d03-4cc9-b36a-94c179fc6f60}, !- Handle
  Temperature,                            !- Name
  ,                                       !- Lower Limit Value
  ,                                       !- Upper Limit Value
  Continuous,                             !- Numeric Type
  Temperature;                            !- Unit Type

OS:Surface,
  {2ab46bca-dcfe-40fd-adcf-65138863c6e8}, !- Handle
  Roof1,                                  !- Name
  RoofCeiling,                            !- Surface Type
  {3e2bf584-6cd8-4bc2-8145-7723bcaa3210}, !- Construction Name
  {45193d4b-2820-4c68-aced-bb7239c96d9f}, !- Space Name
  Outdoors,                               !- Outside Boundary Condition
  ,                                       !- Outside Boundary Condition Object
  SunExposed,                             !- Sun Exposure
  WindExposed,                            !- Wind Exposure
  ,                                       !- View Factor to Ground
  ,                                       !- Number of Vertices
  -26.9347048849634, 58.0557891618865, 2.4384, !- X,Y,Z Vertex 1 {m}
  -26.9347048849634, 46.7895631136661, 8.0715130241102, !- X,Y,Z Vertex 2 {m}
  -14.3386812381136, 46.7895631136661, 8.0715130241102, !- X,Y,Z Vertex 3 {m}
  -14.3386812381136, 58.0557891618865, 2.4384; !- X,Y,Z Vertex 4 {m}

OS:AdditionalProperties,
  {363ce45f-a1d7-41b5-a74e-c62faaa473ad}, !- Handle
  {2ab46bca-dcfe-40fd-adcf-65138863c6e8}, !- Object Name
  Length,                                 !- Feature Name 1
  Double,                                 !- Feature Data Type 1
  41.325536899113608,                     !- Feature Value 1
  Width,                                  !- Feature Name 2
  Double,                                 !- Feature Data Type 2
  41.325536899113601,                     !- Feature Value 2
  Azimuth,                                !- Feature Name 3
  Integer,                                !- Feature Data Type 3
  0,                                      !- Feature Value 3
  Tilt,                                   !- Feature Name 4
  Double,                                 !- Feature Data Type 4
  0.5,                                    !- Feature Value 4
  SurfaceType,                            !- Feature Name 5
  String,                                 !- Feature Data Type 5
  Roof;                                   !- Feature Value 5

OS:ThermalZone,
  {e3a446f0-bc0c-4480-b372-39e0e7a6f120}, !- Handle
  attic - vented,                         !- Name
  1,                                      !- Multiplier
  ,                                       !- Ceiling Height {m}
  356.390921899745,                       !- Volume {m3}
  ,                                       !- Floor Area {m2}
  ,                                       !- Zone Inside Convection Algorithm
  ,                                       !- Zone Outside Convection Algorithm
  ,                                       !- Zone Conditioning Equipment List Name
  {c4c82fe3-4643-4171-83f7-616db8ff0c78}, !- Zone Air Inlet Port List
  {55a274a2-9d3c-4069-a8f3-28606447c32f}, !- Zone Air Exhaust Port List
  {a60fe76e-44cc-456a-bf3f-7b77fa918a5b}, !- Zone Air Node Name
  {8c1ae596-9b46-4dd6-9737-a980eeb5e91c}, !- Zone Return Air Port List
  ,                                       !- Primary Daylighting Control Name
  ,                                       !- Fraction of Zone Controlled by Primary Daylighting Control
  ,                                       !- Secondary Daylighting Control Name
  ,                                       !- Fraction of Zone Controlled by Secondary Daylighting Control
  ,                                       !- Illuminance Map Name
  ,                                       !- Group Rendering Name
  ,                                       !- Thermostat Name
  No;                                     !- Use Ideal Air Loads

OS:Node,
  {c6f5b338-50b0-44b1-89a4-be644ed9fd9c}, !- Handle
  Node 2,                                 !- Name
  {a60fe76e-44cc-456a-bf3f-7b77fa918a5b}, !- Inlet Port
  ;                                       !- Outlet Port

OS:Connection,
  {a60fe76e-44cc-456a-bf3f-7b77fa918a5b}, !- Handle
  {e3a446f0-bc0c-4480-b372-39e0e7a6f120}, !- Source Object
  11,                                     !- Outlet Port
  {c6f5b338-50b0-44b1-89a4-be644ed9fd9c}, !- Target Object
  2;                                      !- Inlet Port

OS:PortList,
  {c4c82fe3-4643-4171-83f7-616db8ff0c78}, !- Handle
  {e3a446f0-bc0c-4480-b372-39e0e7a6f120}; !- HVAC Component

OS:PortList,
  {55a274a2-9d3c-4069-a8f3-28606447c32f}, !- Handle
  {e3a446f0-bc0c-4480-b372-39e0e7a6f120}; !- HVAC Component

OS:PortList,
  {8c1ae596-9b46-4dd6-9737-a980eeb5e91c}, !- Handle
  {e3a446f0-bc0c-4480-b372-39e0e7a6f120}; !- HVAC Component

OS:Sizing:Zone,
  {16479de2-dae6-4f24-b466-95f9388e824d}, !- Handle
  {e3a446f0-bc0c-4480-b372-39e0e7a6f120}, !- Zone or ZoneList Name
  SupplyAirTemperature,                   !- Zone Cooling Design Supply Air Temperature Input Method
  14,                                     !- Zone Cooling Design Supply Air Temperature {C}
  11.11,                                  !- Zone Cooling Design Supply Air Temperature Difference {deltaC}
  SupplyAirTemperature,                   !- Zone Heating Design Supply Air Temperature Input Method
  40,                                     !- Zone Heating Design Supply Air Temperature {C}
  11.11,                                  !- Zone Heating Design Supply Air Temperature Difference {deltaC}
  0.0085,                                 !- Zone Cooling Design Supply Air Humidity Ratio {kg-H2O/kg-air}
  0.008,                                  !- Zone Heating Design Supply Air Humidity Ratio {kg-H2O/kg-air}
  ,                                       !- Zone Heating Sizing Factor
  ,                                       !- Zone Cooling Sizing Factor
  DesignDay,                              !- Cooling Design Air Flow Method
  ,                                       !- Cooling Design Air Flow Rate {m3/s}
  ,                                       !- Cooling Minimum Air Flow per Zone Floor Area {m3/s-m2}
  ,                                       !- Cooling Minimum Air Flow {m3/s}
  ,                                       !- Cooling Minimum Air Flow Fraction
  DesignDay,                              !- Heating Design Air Flow Method
  ,                                       !- Heating Design Air Flow Rate {m3/s}
  ,                                       !- Heating Maximum Air Flow per Zone Floor Area {m3/s-m2}
  ,                                       !- Heating Maximum Air Flow {m3/s}
  ,                                       !- Heating Maximum Air Flow Fraction
  No,                                     !- Account for Dedicated Outdoor Air System
  NeutralSupplyAir,                       !- Dedicated Outdoor Air System Control Strategy
  autosize,                               !- Dedicated Outdoor Air Low Setpoint Temperature for Design {C}
  autosize,                               !- Dedicated Outdoor Air High Setpoint Temperature for Design {C}
  Sensible Load Only No Latent Load,      !- Zone Load Sizing Method
  HumidityRatioDifference,                !- Zone Latent Cooling Design Supply Air Humidity Ratio Input Method
  ,                                       !- Zone Dehumidification Design Supply Air Humidity Ratio {kgWater/kgDryAir}
  0.005,                                  !- Zone Cooling Design Supply Air Humidity Ratio Difference {kgWater/kgDryAir}
  HumidityRatioDifference,                !- Zone Latent Heating Design Supply Air Humidity Ratio Input Method
  ,                                       !- Zone Humidification Design Supply Air Humidity Ratio {kgWater/kgDryAir}
  0.005,                                  !- Zone Humidification Design Supply Air Humidity Ratio Difference {kgWater/kgDryAir}
  ,                                       !- Zone Humidistat Dehumidification Set Point Schedule Name
  ,                                       !- Zone Humidistat Humidification Set Point Schedule Name
  ,                                       !- Design Zone Air Distribution Effectiveness in Cooling Mode
  ,                                       !- Design Zone Air Distribution Effectiveness in Heating Mode
  ,                                       !- Design Zone Secondary Recirculation Fraction {dimensionless}
  ,                                       !- Design Minimum Zone Ventilation Efficiency {dimensionless}
  Coincident;                             !- Sizing Option

OS:ZoneHVAC:EquipmentList,
  {a9f1a80d-0992-4ce1-9d3e-847c04abb016}, !- Handle
  Zone HVAC Equipment List 2,             !- Name
  {e3a446f0-bc0c-4480-b372-39e0e7a6f120}; !- Thermal Zone

OS:AdditionalProperties,
  {16cf593b-ec67-49a3-ad2d-eb8e67136d5a}, !- Handle
  {e3a446f0-bc0c-4480-b372-39e0e7a6f120}, !- Object Name
  ObjectType,                             !- Feature Name 1
  String,                                 !- Feature Data Type 1
  attic - vented;                         !- Feature Value 1

OS:Space,
  {45193d4b-2820-4c68-aced-bb7239c96d9f}, !- Handle
  attic - vented 1,                       !- Name
  ,                                       !- Space Type Name
  ,                                       !- Default Construction Set Name
  ,                                       !- Default Schedule Set Name
  ,                                       !- Direction of Relative North {deg}
  ,                                       !- X Origin {m}
  ,                                       !- Y Origin {m}
  ,                                       !- Z Origin {m}
  ,                                       !- Building Story Name
  {e3a446f0-bc0c-4480-b372-39e0e7a6f120}, !- Thermal Zone Name
  ,                                       !- Part of Total Floor Area
  ,                                       !- Design Specification Outdoor Air Object Name
  ,                                       !- Building Unit Name
  356.390921899745;                       !- Volume {m3}

OS:Material,
  {c9ae5116-7444-4803-b23c-b934577082b4}, !- Handle
  asphalt or fiberglass shingles,         !- Name
  Rough,                                  !- Roughness
  0.00635,                                !- Thickness {m}
  0.162714,                               !- Conductivity {W/m-K}
  1121.4,                                 !- Density {kg/m3}
  1465.45,                                !- Specific Heat {J/kg-K}
  0.9,                                    !- Thermal Absorptance
  0.85,                                   !- Solar Absorptance