
OS:Version,
  {9980badd-e128-432c-8b51-831a3d62605c}, !- Handle
  3.9.0;                                  !- Version Identifier

OS:SimulationControl,
  {a6707f2b-4cd5-441b-a87b-a4b4e644d766}, !- Handle
  ,                                       !- Do Zone Sizing Calculation
  ,                                       !- Do System Sizing Calculation
  ,                                       !- Do Plant Sizing Calculation
  No;                                     !- Run Simulation for Sizing Periods

OS:Timestep,
  {497efe89-8287-4249-9809-215b0f1cbff7}, !- Handle
  1;                                      !- Number of Timesteps per Hour

OS:ShadowCalculation,
  {b47c6455-2a68-464b-91fb-2117305aa743}, !- Handle
  PolygonClipping,                        !- Shading Calculation Method
  ,                                       !- Shading Calculation Update Frequency Method
  20,                                     !- Shading Calculation Update Frequency
  200,                                    !- Maximum Figures in Shadow Overlap Calculations
  ,                                       !- Polygon Clipping Algorithm
  512,                                    !- Pixel Counting Resolution
  ,                                       !- Sky Diffuse Modeling Algorithm
  No,                                     !- Output External Shading Calculation Results
  No,                                     !- Disable Self-Shading Within Shading Zone Groups
  No;                                     !- Disable Self-Shading From Shading Zone Groups to Other Zones

OS:SurfaceConvectionAlgorithm:Outside,
  {73125266-20a0-45aa-a2b3-a4240f0f561a}, !- Handle
  DOE-2;                                  !- Algorithm

OS:SurfaceConvectionAlgorithm:Inside,
  {2a5a43c6-0392-46be-bb02-7d226d085311}, !- Handle
  TARP;                                   !- Algorithm

OS:ZoneCapacitanceMultiplier:ResearchSpecial,
  {e85e67b6-f594-4170-b441-f5114e73257d}, !- Handle
  7,                                      !- Temperature Capacity Multiplier
  15,                                     !- Humidity Capacity Multiplier
  ;                                       !- Carbon Dioxide Capacity Multiplier

OS:ConvergenceLimits,
  {4fa598bf-852a-4cea-a415-aa0f3119e512}, !- Handle
  0;                                      !- Minimum System Timestep {minutes}

OS:RunPeriod,
  {29328f43-e102-4200-8aa9-bb0a344f0127}, !- Handle
  Run Period 1,                           !- Name
  1,                                      !- Begin Month
  1,                                      !- Begin Day of Month
  12,                                     !- End Month
  31,                                     !- End Day of Month
  ,                                       !- Use Weather File Holidays and Special Days
  ,                                       !- Use Weather File Daylight Saving Period
  ,                                       !- Apply Weekend Holiday Rule
  ,                                       !- Use Weather File Rain Indicators
  ,                                       !- Use Weather File Snow Indicators
  ;                                       !- Number of Times Runperiod to be Repeated

OS:PerformancePrecisionTradeoffs,
  {98da35ec-f28f-4512-b101-0d3ad9856000}, !- Handle
  ,                                       !- Use Coil Direct Solutions
  CarrollMRT;                             !- Zone Radiant Exchange Algorithm

OS:WeatherFile,
  {a4e7515a-015d-4593-9532-0b0d189eba88}, !- Handle
  Buffalo Niagara Intl Ap,                !- City
  NY,                                     !- State Province Region
  USA,                                    !- Country
  TMY3,                                   !- Data Source
  725280,                                 !- WMO Number
  42.93,                                  !- Latitude {deg}
  -78.73,                                 !- Longitude {deg}
  -5,                                     !- Time Zone {hr}
  215,                                    !- Elevation {m}
  /Users/nmoore/github/urbanopt-example-geojson-project/example_project/weather/USA_NY_Buffalo-Greater.Buffalo.Intl.AP.725280_TMY3.epw, !- Url
  6B50E0FF,                               !- Checksum
  ,                                       !- Start Date Actual Year
  Sunday;                                 !- Start Day of Week

OS:YearDescription,
  {b393cf87-df30-4026-b94f-35d6271aa09f}, !- Handle
  2007,                                   !- Calendar Year
  ,                                       !- Day of Week for Start Day
  ;                                       !- Is Leap Year

OS:Site,
  {05d6a2ed-82f1-4da1-b443-ed8dd9476f27}, !- Handle
  Buffalo Niagara Intl Ap_NY,             !- Name
  42.93,                                  !- Latitude {deg}
  -78.73,                                 !- Longitude {deg}
  -5,                                     !- Time Zone {hr}
  215,                                    !- Elevation {m}
  Suburbs,                                !- Terrain
  Yes;                                    !- Keep Site Location Information

OS:RunPeriodControl:DaylightSavingTime,
  {06f4d0c7-134d-4f3a-bbcd-6ef3543b407e}, !- Handle
  Mar 12,                                 !- Start Date
  Nov 5;                                  !- End Date

OS:Site:GroundTemperature:Shallow,
  {b8fb4717-923d-47c0-8330-58bb8d6eb3cd}, !- Handle
  4.30207395723828,                       !- January Surface Ground Temperature {C}
  2.29327249652502,                       !- February Surface Ground Temperature {C}
  2.13240047156047,                       !- March Surface Ground Temperature {C}
  3.08567940719286,                       !- April Surface Ground Temperature {C}
  6.91256312497526,                       !- May Surface Ground Temperature {C}
  10.7216195949507,                       !- June Surface Ground Temperature {C}
  14.0238679822574,                       !- July Surface Ground Temperature {C}
  16.1157611184724,                       !- August Surface Ground Temperature {C}
  16.2934789303462,                       !- September Surface Ground Temperature {C}
  14.5920754632847,                       !- October Surface Ground Temperature {C}
  11.374036348653,                        !- November Surface Ground Temperature {C}
  7.68182621661674;                       !- December Surface Ground Temperature {C}

OS:ThermalZone,
  {5bfeefcc-a7a0-48d3-907b-9b3d9e085e70}, !- Handle
  conditioned space,                      !- Name
  1,                                      !- Multiplier
  ,                                       !- Ceiling Height {m}
  692.06373070848,                        !- Volume {m3}
  ,                                       !- Floor Area {m2}
  ,                                       !- Zone Inside Convection Algorithm
  ,                                       !- Zone Outside Convection Algorithm
  ,                                       !- Zone Conditioning Equipment List Name
  {cf3d573a-68d9-4966-8416-8c745d0e3feb}, !- Zone Air Inlet Port List
  {20a37d3c-63d3-4b26-8fd5-e87b0c29cd2d}, !- Zone Air Exhaust Port List
  {f908e134-b417-406b-a64b-41bc2053d758}, !- Zone Air Node Name
  {fdac3410-a7ec-4a73-8cf4-f4be6c373c33}, !- Zone Return Air Port List
  ,                                       !- Primary Daylighting Control Name
  ,                                       !- Fraction of Zone Controlled by Primary Daylighting Control
  ,                                       !- Secondary Daylighting Control Name
  ,                                       !- Fraction of Zone Controlled by Secondary Daylighting Control
  ,                                       !- Illuminance Map Name
  ,                                       !- Group Rendering Name
  {03caa713-0011-46b7-974d-acc39d194f5d}, !- Thermostat Name
  No;                                     !- Use Ideal Air Loads

OS:Node,
  {92dd8a94-d9df-4268-94e9-c087e29bb7d0}, !- Handle
  Node 1,                                 !- Name
  {f908e134-b417-406b-a64b-41bc2053d758}, !- Inlet Port
  ;                                       !- Outlet Port

OS:Connection,
  {f908e134-b417-406b-a64b-41bc2053d758}, !- Handle
  {5bfeefcc-a7a0-48d3-907b-9b3d9e085e70}, !- Source Object
  11,                                     !- Outlet Port
  {92dd8a94-d9df-4268-94e9-c087e29bb7d0}, !- Target Object
  2;                                      !- Inlet Port

OS:PortList,
  {cf3d573a-68d9-4966-8416-8c745d0e3feb}, !- Handle
  {5bfeefcc-a7a0-48d3-907b-9b3d9e085e70}, !- HVAC Component
  {d8f0bbad-4197-4e09-b4c8-23eeeda66c0c}; !- Port 1

OS:PortList,
  {20a37d3c-63d3-4b26-8fd5-e87b0c29cd2d}, !- Handle
  {5bfeefcc-a7a0-48d3-907b-9b3d9e085e70}; !- HVAC Component

OS:PortList,
  {fdac3410-a7ec-4a73-8cf4-f4be6c373c33}, !- Handle
  {5bfeefcc-a7a0-48d3-907b-9b3d9e085e70}, !- HVAC Component
  {e053fe83-bd60-499b-8d89-298c07acd460}; !- Port 1

OS:Sizing:Zone,
  {4b1dfb7f-64b7-4b20-8981-5d67e0110bb3}, !- Handle
  {5bfeefcc-a7a0-48d3-907b-9b3d9e085e70}, !- Zone or ZoneList Name
  SupplyAirTemperature,                   !- Zone Cooling Design Supply Air Temperature Input Method
  14,                                     !- Zone Cooling Design Supply Air Temperature {C}
  11.11,                                  !- Zone Cooling Design Supply Air Temperature Difference {deltaC}
  SupplyAirTemperature,                   !- Zone Heating Design Supply Air Temperature Input Method
  40,                                     !- Zone Heating Design Supply Air Temperature {C}
  11.11,                                  !- Zone Heating Design Supply Air Temperature Difference {deltaC}
  0.0085,                                 !- Zone Cooling Design Supply Air Humidity Ratio {kg-H2O/kg-air}
  0.008,                                  !- Zone Heating Design Supply Air Humidity Ratio {kg-H2O/kg-air}
  ,                                       !- Zone Heating Sizing Factor
  ,                                       !- Zone Cooling Sizing Factor
  DesignDay,                              !- Cooling Design Air Flow Method
  ,                                       !- Cooling Design Air Flow Rate {m3/s}
  ,                                       !- Cooling Minimum Air Flow per Zone Floor Area {m3/s-m2}
  ,                                       !- Cooling Minimum Air Flow {m3/s}
  ,                                       !- Cooling Minimum Air Flow Fraction
  DesignDay,                              !- Heating Design Air Flow Method
  ,                                       !- Heating Design Air Flow Rate {m3/s}
  ,                                       !- Heating Maximum Air Flow per Zone Floor Area {m3/s-m2}
  ,                                       !- Heating Maximum Air Flow {m3/s}
  ,                                       !- Heating Maximum Air Flow Fraction
  No,                                     !- Account for Dedicated Outdoor Air System
  NeutralSupplyAir,                       !- Dedicated Outdoor Air System Control Strategy
  autosize,                               !- Dedicated Outdoor Air Low Setpoint Temperature for Design {C}
  autosize,                               !- Dedicated Outdoor Air High Setpoint Temperature for Design {C}
  Sensible Load Only No Latent Load,      !- Zone Load Sizing Method
  HumidityRatioDifference,                !- Zone Latent Cooling Design Supply Air Humidity Ratio Input Method
  ,                                       !- Zone Dehumidification Design Supply Air Humidity Ratio {kgWater/kgDryAir}
  0.005,                                  !- Zone Cooling Design Supply Air Humidity Ratio Difference {kgWater/kgDryAir}
  HumidityRatioDifference,                !- Zone Latent Heating Design Supply Air Humidity Ratio Input Method
  ,                                       !- Zone Humidification Design Supply Air Humidity Ratio {kgWater/kgDryAir}
  0.005,                                  !- Zone Humidification Design Supply Air Humidity Ratio Difference {kgWater/kgDryAir}
  ,                                       !- Zone Humidistat Dehumidification Set Point Schedule Name
  ,                                       !- Zone Humidistat Humidification Set Point Schedule Name
  ,                                       !- Design Zone Air Distribution Effectiveness in Cooling Mode
  ,                                       !- Design Zone Air Distribution Effectiveness in Heating Mode
  ,                                       !- Design Zone Secondary Recirculation Fraction {dimensionless}
  ,                                       !- Design Minimum Zone Ventilation Efficiency {dimensionless}
  Coincident;                             !- Sizing Option

OS:ZoneHVAC:EquipmentList,
  {b657dadd-4277-4379-a2cb-de5c35bfec5a}, !- Handle
  Zone HVAC Equipment List 1,             !- Name
  {5bfeefcc-a7a0-48d3-907b-9b3d9e085e70}, !- Thermal Zone
  ,                                       !- Load Distribution Scheme
  {5b4897c2-1f56-4f3c-b4f8-c76d98d8534a}, !- Zone Equipment 1
  1,                                      !- Zone Equipment Cooling Sequence 1
  1,                                      !- Zone Equipment Heating or No-Load Sequence 1
  {1d837021-a20b-4b82-bfd8-3e12c591bb58}, !- Zone Equipment Sequential Cooling Fraction Schedule Name 1
  {73c020c8-e10b-49ad-b487-7039dc6ba73c}; !- Zone Equipment Sequential Heating Fraction Schedule Name 1

OS:AdditionalProperties,
  {2bb67cc7-fd28-4ed8-b0c2-7354a1ab2dfe}, !- Handle
  {5bfeefcc-a7a0-48d3-907b-9b3d9e085e70}, !- Object Name
  ObjectType,                             !- Feature Name 1
  String,                                 !- Feature Data Type 1
  conditioned space;                      !- Feature Value 1

OS:Space,
  {34a6555c-1c4b-49df-a720-df8094464eff}, !- Handle
  conditioned space 1,                    !- Name
  ,                                       !- Space Type Name
  ,                                       !- Default Construction Set Name
  ,                                       !- Default Schedule Set Name
  ,                                       !- Direction of Relative North {deg}
  ,                                       !- X Origin {m}
  ,                                       !- Y Origin {m}
  ,                                       !- Z Origin {m}
  ,                                       !- Building Story Name
  {5bfeefcc-a7a0-48d3-907b-9b3d9e085e70}, !- Thermal Zone Name
  ,                                       !- Part of Total Floor Area
  ,                                       !- Design Specification Outdoor Air Object Name
  ,                                       !- Building Unit Name
  692.06373070848;                        !- Volume {m3}

OS:Schedule:Ruleset,
  {303d1f05-41d3-4b50-b766-a2cf0d4a887e}, !- Handle
  heating setpoint,                       !- Name
  {5191d71b-393b-47bc-873a-e69adeed08ed}, !- Schedule Type Limits Name
  {2b138ec2-e1d4-4ee6-b87f-bbec7d05b887}; !- Default Day Schedule Name

OS:Schedule:Day,
  {2b138ec2-e1d4-4ee6-b87f-bbec7d05b887}, !- Handle
  heating setpoint default day,           !- Name
  {5191d71b-393b-47bc-873a-e69adeed08ed}, !- Schedule Type Limits Name
  ,                                       !- Interpolate to Timestep
  24,                                     !- Hour 1
  0,                                      !- Minute 1
  0;                                      !- Value Until Time 1

OS:Schedule:Rule,
  {a375474e-b206-4426-b8ac-c1d2f3838f0c}, !- Handle
  heating setpoint allday rule,           !- Name
  {303d1f05-41d3-4b50-b766-a2cf0d4a887e}, !- Schedule Ruleset Name
  0,                                      !- Rule Order
  {d62851e6-5d0c-4127-b4e8-456cb7d97fd0}, !- Day Schedule Name
  Yes,                                    !- Apply Sunday
  Yes,                                    !- Apply Monday
  Yes,                                    !- Apply Tuesday
  Yes,                                    !- Apply Wednesday
  Yes,                                    !- Apply Thursday
  Yes,                                    !- Apply Friday
  Yes,                                    !- Apply Saturday
  DateRange,                              !- Date Specification Type
  1,                                      !- Start Month
  1,                                      !- Start Day
  12,                                     !- End Month
  31;                                     !- End Day

OS:Schedule:Day,
  {d62851e6-5d0c-4127-b4e8-456cb7d97fd0}, !- Handle
  heating setpoint day,                   !- Name
  {5191d71b-393b-47bc-873a-e69adeed08ed}, !- Schedule Type Limits Name
  ,                                       !- Interpolate to Timestep
  24,                                     !- Hour 1
  0,                                      !- Minute 1
  20;                                     !- Value Until Time 1

OS:Schedule:Ruleset,
  {dcffbd67-e8bc-421b-be84-dc9fcd6ad956}, !- Handle
  cooling setpoint,                       !- Name
  {5191d71b-393b-47bc-873a-e69adeed08ed}, !- Schedule Type Limits Name
  {2120db45-d8b9-4b78-873a-2c59248c5f39}; !- Default Day Schedule Name

OS:Schedule:Day,
  {2120db45-d8b9-4b78-873a-2c59248c5f39}, !- Handle
  cooling setpoint default day,           !- Name
  {5191d71b-393b-47bc-873a-e69adeed08ed}, !- Schedule Type Limits Name
  ,                                       !- Interpolate to Timestep
  24,                                     !- Hour 1
  0,                                      !- Minute 1
  0;                                      !- Value Until Time 1

OS:Schedule:Rule,
  {af76e3f1-cd07-4ff6-87b3-c1bf43a7fabb}, !- Handle
  cooling setpoint allday rule,           !- Name
  {dcffbd67-e8bc-421b-be84-dc9fcd6ad956}, !- Schedule Ruleset Name
  0,                                      !- Rule Order
  {c7e43769-c60b-4826-b1fd-b913c329e75e}, !- Day Schedule Name
  Yes,                                    !- Apply Sunday
  Yes,                                    !- Apply Monday
  Yes,                                    !- Apply Tuesday
  Yes,                                    !- Apply Wednesday
  Yes,                                    !- Apply Thursday
  Yes,                                    !- Apply Friday
  Yes,                                    !- Apply Saturday
  DateRange,                              !- Date Specification Type
  1,                                      !- Start Month
  1,                                      !- Start Day
  12,                                     !- End Month
  31;                                     !- End Day

OS:Schedule:Day,
  {c7e43769-c60b-4826-b1fd-b913c329e75e}, !- Handle
  cooling setpoint day,                   !- Name
  {5191d71b-393b-47bc-873a-e69adeed08ed}, !- Schedule Type Limits Name
  ,                                       !- Interpolate to Timestep
  24,                                     !- Hour 1
  0,                                      !- Minute 1
  25.5555555555556;                       !- Value Until Time 1

OS:ThermostatSetpoint:DualSetpoint,
  {03caa713-0011-46b7-974d-acc39d194f5d}, !- Handle
  conditioned space temperature setpoint, !- Name
  {303d1f05-41d3-4b50-b766-a2cf0d4a887e}, !- Heating Setpoint Temperature Schedule Name
  {dcffbd67-e8bc-421b-be84-dc9fcd6ad956}, !- Cooling Setpoint Temperature Schedule Name
  0;                                      !- Temperature Difference Between Cutout And Setpoint {deltaC}

OS:ScheduleTypeLimits,
  {5191d71b-393b-47bc-873a-e69adeed08ed}, !- Handle
  Temperature,                            !- Name
  ,                                       !- Lower Limit Value
  ,                                       !- Upper Limit Value
  Continuous,                             !- Numeric Type
  Temperature;                            !- Unit Type

OS:Surface,
  {0428e7cf-982c-4b13-b08e-dad30495b570}, !- Handle
  Roof1,                                  !- Name
  RoofCeiling,                            !- Surface Type
  {712c9dc3-38a6-4722-8fff-abce458e471a}, !- Construction Name
  {aa6f3720-258f-41a7-a94b-ffae3ae66996}, !- Space Name
  Outdoors,                               !- Outside Boundary Condition
  ,                                       !- Outside Boundary Condition Object
  SunExposed,                             !- Sun Exposure
  WindExposed,                            !- Wind Exposure
  ,                                       !- View Factor to Ground
  ,                                       !- Number of Vertices
  -26.9347048849634, 58.0557891618865, 2.4384, !- X,Y,Z Vertex 1 {m}
  -26.9347048849634, 46.7895631136661, 8.0715130241102, !- X,Y,Z Vertex 2 {m}
  -14.3386812381136, 46.7895631136661, 8.0715130241102, !- X,Y,Z Vertex 3 {m}
  -14.3386812381136, 58.0557891618865, 2.4384; !- X,Y,Z Vertex 4 {m}

OS:AdditionalProperties,
  {8d990c34-19f9-4f60-af10-2eb7135781b6}, !- Handle
  {0428e7cf-982c-4b13-b08e-dad30495b570}, !- Object Name
  Length,                                 !- Feature Name 1
  Double,                                 !- Feature Data Type 1
  41.325536899113608,                     !- Feature Value 1
  Width,                                  !- Feature Name 2
  Double,                                 !- Feature Data Type 2
  41.325536899113601,                     !- Feature Value 2
  Azimuth,                                !- Feature Name 3
  Integer,                                !- Feature Data Type 3
  0,                                      !- Feature Value 3
  Tilt,                                   !- Feature Name 4
  Double,                                 !- Feature Data Type 4
  0.5,                                    !- Feature Value 4
  SurfaceType,                            !- Feature Name 5
  String,                                 !- Feature Data Type 5
  Roof;                                   !- Feature Value 5

OS:ThermalZone,
  {5b7bd847-b353-43e0-9730-901ff633c3d6}, !- Handle
  attic - vented,                         !- Name
  1,                                      !- Multiplier
  ,                                       !- Ceiling Height {m}
  356.389957095237,                       !- Volume {m3}
  ,                                       !- Floor Area {m2}
  ,                                       !- Zone Inside Convection Algorithm
  ,                                       !- Zone Outside Convection Algorithm
  ,                                       !- Zone Conditioning Equipment List Name
  {c46e4c4f-16be-4eac-bbb8-6a8e6f386600}, !- Zone Air Inlet Port List
  {db015735-ba64-4110-b30b-49869bc0f016}, !- Zone Air Exhaust Port List
  {12e65ea9-93e8-4eba-af02-8b40a97b1eae}, !- Zone Air Node Name
  {f4cd7b10-756f-4630-acb2-6d4a8cae651e}, !- Zone Return Air Port List
  ,                                       !- Primary Daylighting Control Name
  ,                                       !- Fraction of Zone Controlled by Primary Daylighting Control
  ,                                       !- Secondary Daylighting Control Name
  ,                                       !- Fraction of Zone Controlled by Secondary Daylighting Control
  ,                                       !- Illuminance Map Name
  ,                                       !- Group Rendering Name
  ,                                       !- Thermostat Name
  No;                                     !- Use Ideal Air Loads

OS:Node,
  {10117437-c167-450b-b143-d7a607034b48}, !- Handle
  Node 2,                                 !- Name
  {12e65ea9-93e8-4eba-af02-8b40a97b1eae}, !- Inlet Port
  ;                                       !- Outlet Port

OS:Connection,
  {12e65ea9-93e8-4eba-af02-8b40a97b1eae}, !- Handle
  {5b7bd847-b353-43e0-9730-901ff633c3d6}, !- Source Object
  11,                                     !- Outlet Port
  {10117437-c167-450b-b143-d7a607034b48}, !- Target Object
  2;                                      !- Inlet Port

OS:PortList,
  {c46e4c4f-16be-4eac-bbb8-6a8e6f386600}, !- Handle
  {5b7bd847-b353-43e0-9730-901ff633c3d6}; !- HVAC Component

OS:PortList,
  {db015735-ba64-4110-b30b-49869bc0f016}, !- Handle
  {5b7bd847-b353-43e0-9730-901ff633c3d6}; !- HVAC Component

OS:PortList,
  {f4cd7b10-756f-4630-acb2-6d4a8cae651e}, !- Handle
  {5b7bd847-b353-43e0-9730-901ff633c3d6}; !- HVAC Component

OS:Sizing:Zone,
  {ed595baa-9eab-4bea-8ef9-4076e669deb5}, !- Handle
  {5b7bd847-b353-43e0-9730-901ff633c3d6}, !- Zone or ZoneList Name
  SupplyAirTemperature,                   !- Zone Cooling Design Supply Air Temperature Input Method
  14,                                     !- Zone Cooling Design Supply Air Temperature {C}
  11.11,                                  !- Zone Cooling Design Supply Air Temperature Difference {deltaC}
  SupplyAirTemperature,                   !- Zone Heating Design Supply Air Temperature Input Method
  40,                                     !- Zone Heating Design Supply Air Temperature {C}
  11.11,                                  !- Zone Heating Design Supply Air Temperature Difference {deltaC}
  0.0085,                                 !- Zone Cooling Design Supply Air Humidity Ratio {kg-H2O/kg-air}
  0.008,                                  !- Zone Heating Design Supply Air Humidity Ratio {kg-H2O/kg-air}
  ,                                       !- Zone Heating Sizing Factor
  ,                                       !- Zone Cooling Sizing Factor
  DesignDay,                              !- Cooling Design Air Flow Method
  ,                                       !- Cooling Design Air Flow Rate {m3/s}
  ,                                       !- Cooling Minimum Air Flow per Zone Floor Area {m3/s-m2}
  ,                                       !- Cooling Minimum Air Flow {m3/s}
  ,                                       !- Cooling Minimum Air Flow Fraction
  DesignDay,                              !- Heating Design Air Flow Method
  ,                                       !- Heating Design Air Flow Rate {m3/s}
  ,                                       !- Heating Maximum Air Flow per Zone Floor Area {m3/s-m2}
  ,                                       !- Heating Maximum Air Flow {m3/s}
  ,                                       !- Heating Maximum Air Flow Fraction
  No,                                     !- Account for Dedicated Outdoor Air System
  NeutralSupplyAir,                       !- Dedicated Outdoor Air System Control Strategy
  autosize,                               !- Dedicated Outdoor Air Low Setpoint Temperature for Design {C}
  autosize,                               !- Dedicated Outdoor Air High Setpoint Temperature for Design {C}
  Sensible Load Only No Latent Load,      !- Zone Load Sizing Method
  HumidityRatioDifference,                !- Zone Latent Cooling Design Supply Air Humidity Ratio Input Method
  ,                                       !- Zone Dehumidification Design Supply Air Humidity Ratio {kgWater/kgDryAir}
  0.005,                                  !- Zone Cooling Design Supply Air Humidity Ratio Difference {kgWater/kgDryAir}
  HumidityRatioDifference,                !- Zone Latent Heating Design Supply Air Humidity Ratio Input Method
  ,                                       !- Zone Humidification Design Supply Air Humidity Ratio {kgWater/kgDryAir}
  0.005,                                  !- Zone Humidification Design Supply Air Humidity Ratio Difference {kgWater/kgDryAir}
  ,                                       !- Zone Humidistat Dehumidification Set Point Schedule Name
  ,                                       !- Zone Humidistat Humidification Set Point Schedule Name
  ,                                       !- Design Zone Air Distribution Effectiveness in Cooling Mode
  ,                                       !- Design Zone Air Distribution Effectiveness in Heating Mode
  ,                                       !- Design Zone Secondary Recirculation Fraction {dimensionless}
  ,                                       !- Design Minimum Zone Ventilation Efficiency {dimensionless}
  Coincident;                             !- Sizing Option

OS:ZoneHVAC:EquipmentList,
  {8bcbd979-13ef-4caa-a985-608e9de55365}, !- Handle
  Zone HVAC Equipment List 2,             !- Name
  {5b7bd847-b353-43e0-9730-901ff633c3d6}; !- Thermal Zone

OS:AdditionalProperties,
  {507b9ba4-eb27-4521-be5e-d27317f2f0c5}, !- Handle
  {5b7bd847-b353-43e0-9730-901ff633c3d6}, !- Object Name
  ObjectType,                             !- Feature Name 1
  String,                                 !- Feature Data Type 1
  attic - vented;                         !- Feature Value 1

OS:Space,
  {aa6f3720-258f-41a7-a94b-ffae3ae66996}, !- Handle
  attic - vented 1,                       !- Name
  ,                                       !- Space Type Name
  ,                                       !- Default Construction Set Name
  ,                                       !- Default Schedule Set Name
  ,                                       !- Direction of Relative North {deg}
  ,                                       !- X Origin {m}
  ,                                       !- Y Origin {m}
  ,                                       !- Z Origin {m}
  ,                                       !- Building Story Name
  {5b7bd847-b353-43e0-9730-901ff633c3d6}, !- Thermal Zone Name
  ,                                       !- Part of Total Floor Area
  ,                                       !- Design Specification Outdoor Air Object Name
  ,                                       !- Building Unit Name
  356.389957095237;                       !- Volume {m3}

OS:Material,
  {9c37663d-5c90-45fb-bbcd-b94019623abf}, !- Handle
  asphalt or fiberglass shingles,         !- Name
  Rough,                                  !- Roughness
  0.00635,                                !- Thickness {m}
  0.162714,                               !- Conductivity {W/m-K}
  1121.4,                                 !- Density {kg/m3}
  1465.45,                                !- Specific Heat {J/kg-K}
  0.9,                                    !- Thermal Absorptance
  0.85,                                   !- Solar Absorptance