
OS:Version,
  {95fd8946-b4db-47a7-89b5-dfe3893a2261}, !- Handle
  3.9.0;                                  !- Version Identifier

OS:SimulationControl,
  {13097fd6-5f84-484a-bd02-b8d716d5d80c}, !- Handle
  ,                                       !- Do Zone Sizing Calculation
  ,                                       !- Do System Sizing Calculation
  ,                                       !- Do Plant Sizing Calculation
  No;                                     !- Run Simulation for Sizing Periods

OS:Timestep,
  {d4904dfb-2886-4b9a-ac2c-aaee05833ec5}, !- Handle
  1;                                      !- Number of Timesteps per Hour

OS:ShadowCalculation,
  {151ebd78-d389-404e-b16b-be76b30e1588}, !- Handle
  PolygonClipping,                        !- Shading Calculation Method
  ,                                       !- Shading Calculation Update Frequency Method
  20,                                     !- Shading Calculation Update Frequency
  200,                                    !- Maximum Figures in Shadow Overlap Calculations
  ,                                       !- Polygon Clipping Algorithm
  512,                                    !- Pixel Counting Resolution
  ,                                       !- Sky Diffuse Modeling Algorithm
  No,                                     !- Output External Shading Calculation Results
  No,                                     !- Disable Self-Shading Within Shading Zone Groups
  No;                                     !- Disable Self-Shading From Shading Zone Groups to Other Zones

OS:SurfaceConvectionAlgorithm:Outside,
  {f1b292da-8fea-4759-b516-13bfebd81b9f}, !- Handle
  DOE-2;                                  !- Algorithm

OS:SurfaceConvectionAlgorithm:Inside,
  {ac0985ac-52ea-49e7-a51d-c489652d730f}, !- Handle
  TARP;                                   !- Algorithm

OS:ZoneCapacitanceMultiplier:ResearchSpecial,
  {e4a5e33f-4769-4309-8be6-2bbe33a28885}, !- Handle
  7,                                      !- Temperature Capacity Multiplier
  15,                                     !- Humidity Capacity Multiplier
  ;                                       !- Carbon Dioxide Capacity Multiplier

OS:ConvergenceLimits,
  {e50ca18c-8d2d-4a46-bdf0-6b9db9e55ada}, !- Handle
  0;                                      !- Minimum System Timestep {minutes}

OS:RunPeriod,
  {42b8e99f-23cf-4889-ab43-88daee1dd363}, !- Handle
  Run Period 1,                           !- Name
  1,                                      !- Begin Month
  1,                                      !- Begin Day of Month
  12,                                     !- End Month
  31,                                     !- End Day of Month
  ,                                       !- Use Weather File Holidays and Special Days
  ,                                       !- Use Weather File Daylight Saving Period
  ,                                       !- Apply Weekend Holiday Rule
  ,                                       !- Use Weather File Rain Indicators
  ,                                       !- Use Weather File Snow Indicators
  ;                                       !- Number of Times Runperiod to be Repeated

OS:PerformancePrecisionTradeoffs,
  {16bea8f0-4c81-4741-9393-44c7ca07c77d}, !- Handle
  ,                                       !- Use Coil Direct Solutions
  CarrollMRT;                             !- Zone Radiant Exchange Algorithm

OS:WeatherFile,
  {c68ed59b-5388-446d-a9ca-e7d951c42da5}, !- Handle
  Buffalo Niagara Intl Ap,                !- City
  NY,                                     !- State Province Region
  USA,                                    !- Country
  TMY3,                                   !- Data Source
  725280,                                 !- WMO Number
  42.93,                                  !- Latitude {deg}
  -78.73,                                 !- Longitude {deg}
  -5,                                     !- Time Zone {hr}
  215,                                    !- Elevation {m}
  /Users/nmoore/github/urbanopt-example-geojson-project/example_project/weather/USA_NY_Buffalo-Greater.Buffalo.Intl.AP.725280_TMY3.epw, !- Url
  6B50E0FF,                               !- Checksum
  ,                                       !- Start Date Actual Year
  Sunday;                                 !- Start Day of Week

OS:YearDescription,
  {37ba9365-1fe6-4f84-86be-16f3ea7f6a83}, !- Handle
  2007,                                   !- Calendar Year
  ,                                       !- Day of Week for Start Day
  ;                                       !- Is Leap Year

OS:Site,
  {d87da11d-92d3-4341-b999-82e15544c557}, !- Handle
  Buffalo Niagara Intl Ap_NY,             !- Name
  42.93,                                  !- Latitude {deg}
  -78.73,                                 !- Longitude {deg}
  -5,                                     !- Time Zone {hr}
  215,                                    !- Elevation {m}
  Suburbs,                                !- Terrain
  Yes;                                    !- Keep Site Location Information

OS:RunPeriodControl:DaylightSavingTime,
  {6fc172f0-f9ed-48c6-ae21-7921668602f6}, !- Handle
  Mar 12,                                 !- Start Date
  Nov 5;                                  !- End Date

OS:Site:GroundTemperature:Shallow,
  {14c2fc58-da45-45c4-aa36-2cc0e975eb3d}, !- Handle
  4.30207395723828,                       !- January Surface Ground Temperature {C}
  2.29327249652502,                       !- February Surface Ground Temperature {C}
  2.13240047156047,                       !- March Surface Ground Temperature {C}
  3.08567940719286,                       !- April Surface Ground Temperature {C}
  6.91256312497526,                       !- May Surface Ground Temperature {C}
  10.7216195949507,                       !- June Surface Ground Temperature {C}
  14.0238679822574,                       !- July Surface Ground Temperature {C}
  16.1157611184724,                       !- August Surface Ground Temperature {C}
  16.2934789303462,                       !- September Surface Ground Temperature {C}
  14.5920754632847,                       !- October Surface Ground Temperature {C}
  11.374036348653,                        !- November Surface Ground Temperature {C}
  7.68182621661674;                       !- December Surface Ground Temperature {C}

OS:ThermalZone,
  {3dbec863-85ba-42b4-884a-a0eb74b16bcf}, !- Handle
  conditioned space,                      !- Name
  1,                                      !- Multiplier
  ,                                       !- Ceiling Height {m}
  346.03186535424,                        !- Volume {m3}
  ,                                       !- Floor Area {m2}
  ,                                       !- Zone Inside Convection Algorithm
  ,                                       !- Zone Outside Convection Algorithm
  ,                                       !- Zone Conditioning Equipment List Name
  {a476d7a2-5ba7-404d-9b90-2a3ee8c1a71c}, !- Zone Air Inlet Port List
  {ee4f8aac-e07c-4ef2-8606-3db2692b42c2}, !- Zone Air Exhaust Port List
  {03e924b0-f4e1-4daa-999d-c29dc95bede6}, !- Zone Air Node Name
  {a9c8bce4-0d4b-4e62-bb31-732609b1989f}, !- Zone Return Air Port List
  ,                                       !- Primary Daylighting Control Name
  ,                                       !- Fraction of Zone Controlled by Primary Daylighting Control
  ,                                       !- Secondary Daylighting Control Name
  ,                                       !- Fraction of Zone Controlled by Secondary Daylighting Control
  ,                                       !- Illuminance Map Name
  ,                                       !- Group Rendering Name
  {2e940ae4-9f6a-47ab-b105-dbd2bdf6e359}, !- Thermostat Name
  No;                                     !- Use Ideal Air Loads

OS:Node,
  {a88e1802-356f-4917-8dd1-46cbfabf4422}, !- Handle
  Node 1,                                 !- Name
  {03e924b0-f4e1-4daa-999d-c29dc95bede6}, !- Inlet Port
  ;                                       !- Outlet Port

OS:Connection,
  {03e924b0-f4e1-4daa-999d-c29dc95bede6}, !- Handle
  {3dbec863-85ba-42b4-884a-a0eb74b16bcf}, !- Source Object
  11,                                     !- Outlet Port
  {a88e1802-356f-4917-8dd1-46cbfabf4422}, !- Target Object
  2;                                      !- Inlet Port

OS:PortList,
  {a476d7a2-5ba7-404d-9b90-2a3ee8c1a71c}, !- Handle
  {3dbec863-85ba-42b4-884a-a0eb74b16bcf}, !- HVAC Component
  {0474c4d7-1de8-40ec-a487-2272d2c9beca}; !- Port 1

OS:PortList,
  {ee4f8aac-e07c-4ef2-8606-3db2692b42c2}, !- Handle
  {3dbec863-85ba-42b4-884a-a0eb74b16bcf}; !- HVAC Component

OS:PortList,
  {a9c8bce4-0d4b-4e62-bb31-732609b1989f}, !- Handle
  {3dbec863-85ba-42b4-884a-a0eb74b16bcf}, !- HVAC Component
  {771228b6-2d87-49a2-b6b2-8fa2eb2fa157}; !- Port 1

OS:Sizing:Zone,
  {373567ee-2e0c-4174-bcf4-bb4c562a74ea}, !- Handle
  {3dbec863-85ba-42b4-884a-a0eb74b16bcf}, !- Zone or ZoneList Name
  SupplyAirTemperature,                   !- Zone Cooling Design Supply Air Temperature Input Method
  14,                                     !- Zone Cooling Design Supply Air Temperature {C}
  11.11,                                  !- Zone Cooling Design Supply Air Temperature Difference {deltaC}
  SupplyAirTemperature,                   !- Zone Heating Design Supply Air Temperature Input Method
  40,                                     !- Zone Heating Design Supply Air Temperature {C}
  11.11,                                  !- Zone Heating Design Supply Air Temperature Difference {deltaC}
  0.0085,                                 !- Zone Cooling Design Supply Air Humidity Ratio {kg-H2O/kg-air}
  0.008,                                  !- Zone Heating Design Supply Air Humidity Ratio {kg-H2O/kg-air}
  ,                                       !- Zone Heating Sizing Factor
  ,                                       !- Zone Cooling Sizing Factor
  DesignDay,                              !- Cooling Design Air Flow Method
  ,                                       !- Cooling Design Air Flow Rate {m3/s}
  ,                                       !- Cooling Minimum Air Flow per Zone Floor Area {m3/s-m2}
  ,                                       !- Cooling Minimum Air Flow {m3/s}
  ,                                       !- Cooling Minimum Air Flow Fraction
  DesignDay,                              !- Heating Design Air Flow Method
  ,                                       !- Heating Design Air Flow Rate {m3/s}
  ,                                       !- Heating Maximum Air Flow per Zone Floor Area {m3/s-m2}
  ,                                       !- Heating Maximum Air Flow {m3/s}
  ,                                       !- Heating Maximum Air Flow Fraction
  No,                                     !- Account for Dedicated Outdoor Air System
  NeutralSupplyAir,                       !- Dedicated Outdoor Air System Control Strategy
  autosize,                               !- Dedicated Outdoor Air Low Setpoint Temperature for Design {C}
  autosize,                               !- Dedicated Outdoor Air High Setpoint Temperature for Design {C}
  Sensible Load Only No Latent Load,      !- Zone Load Sizing Method
  HumidityRatioDifference,                !- Zone Latent Cooling Design Supply Air Humidity Ratio Input Method
  ,                                       !- Zone Dehumidification Design Supply Air Humidity Ratio {kgWater/kgDryAir}
  0.005,                                  !- Zone Cooling Design Supply Air Humidity Ratio Difference {kgWater/kgDryAir}
  HumidityRatioDifference,                !- Zone Latent Heating Design Supply Air Humidity Ratio Input Method
  ,                                       !- Zone Humidification Design Supply Air Humidity Ratio {kgWater/kgDryAir}
  0.005,                                  !- Zone Humidification Design Supply Air Humidity Ratio Difference {kgWater/kgDryAir}
  ,                                       !- Zone Humidistat Dehumidification Set Point Schedule Name
  ,                                       !- Zone Humidistat Humidification Set Point Schedule Name
  ,                                       !- Design Zone Air Distribution Effectiveness in Cooling Mode
  ,                                       !- Design Zone Air Distribution Effectiveness in Heating Mode
  ,                                       !- Design Zone Secondary Recirculation Fraction {dimensionless}
  ,                                       !- Design Minimum Zone Ventilation Efficiency {dimensionless}
  Coincident;                             !- Sizing Option

OS:ZoneHVAC:EquipmentList,
  {fff6b100-1f95-45bc-9319-a57000ecc903}, !- Handle
  Zone HVAC Equipment List 1,             !- Name
  {3dbec863-85ba-42b4-884a-a0eb74b16bcf}, !- Thermal Zone
  ,                                       !- Load Distribution Scheme
  {2b7d494a-bc9c-4de7-98d1-6aefb07e0370}, !- Zone Equipment 1
  1,                                      !- Zone Equipment Cooling Sequence 1
  1,                                      !- Zone Equipment Heating or No-Load Sequence 1
  {35eb5ba5-3093-4c7a-a6af-147b11238bbb}, !- Zone Equipment Sequential Cooling Fraction Schedule Name 1
  {2ab86504-f3aa-4771-9ab2-046b788ab242}; !- Zone Equipment Sequential Heating Fraction Schedule Name 1

OS:AdditionalProperties,
  {85ff18a9-0352-47c9-8f6f-721ea47aa7da}, !- Handle
  {3dbec863-85ba-42b4-884a-a0eb74b16bcf}, !- Object Name
  ObjectType,                             !- Feature Name 1
  String,                                 !- Feature Data Type 1
  conditioned space;                      !- Feature Value 1

OS:Space,
  {d9785c86-f13f-4689-bc88-4a915ec33f58}, !- Handle
  conditioned space 1,                    !- Name
  ,                                       !- Space Type Name
  ,                                       !- Default Construction Set Name
  ,                                       !- Default Schedule Set Name
  ,                                       !- Direction of Relative North {deg}
  ,                                       !- X Origin {m}
  ,                                       !- Y Origin {m}
  ,                                       !- Z Origin {m}
  ,                                       !- Building Story Name
  {3dbec863-85ba-42b4-884a-a0eb74b16bcf}, !- Thermal Zone Name
  ,                                       !- Part of Total Floor Area
  ,                                       !- Design Specification Outdoor Air Object Name
  ,                                       !- Building Unit Name
  346.03186535424;                        !- Volume {m3}

OS:Schedule:Ruleset,
  {f739937b-148d-4772-bf23-c1a1e69719d2}, !- Handle
  heating setpoint,                       !- Name
  {8b40a19e-491d-40c2-a80d-71bfa7800fe3}, !- Schedule Type Limits Name
  {3c60f06f-c568-4feb-9018-193184243512}; !- Default Day Schedule Name

OS:Schedule:Day,
  {3c60f06f-c568-4feb-9018-193184243512}, !- Handle
  heating setpoint default day,           !- Name
  {8b40a19e-491d-40c2-a80d-71bfa7800fe3}, !- Schedule Type Limits Name
  ,                                       !- Interpolate to Timestep
  24,                                     !- Hour 1
  0,                                      !- Minute 1
  0;                                      !- Value Until Time 1

OS:Schedule:Rule,
  {e5d0bebf-4014-48f3-bd93-06d5c5001301}, !- Handle
  heating setpoint allday rule,           !- Name
  {f739937b-148d-4772-bf23-c1a1e69719d2}, !- Schedule Ruleset Name
  0,                                      !- Rule Order
  {7ae7a2b9-c720-470a-aa5c-618f995668a6}, !- Day Schedule Name
  Yes,                                    !- Apply Sunday
  Yes,                                    !- Apply Monday
  Yes,                                    !- Apply Tuesday
  Yes,                                    !- Apply Wednesday
  Yes,                                    !- Apply Thursday
  Yes,                                    !- Apply Friday
  Yes,                                    !- Apply Saturday
  DateRange,                              !- Date Specification Type
  1,                                      !- Start Month
  1,                                      !- Start Day
  12,                                     !- End Month
  31;                                     !- End Day

OS:Schedule:Day,
  {7ae7a2b9-c720-470a-aa5c-618f995668a6}, !- Handle
  heating setpoint day,                   !- Name
  {8b40a19e-491d-40c2-a80d-71bfa7800fe3}, !- Schedule Type Limits Name
  ,                                       !- Interpolate to Timestep
  24,                                     !- Hour 1
  0,                                      !- Minute 1
  20;                                     !- Value Until Time 1

OS:Schedule:Ruleset,
  {1da8c298-55b6-487d-ae49-ff537bfc026b}, !- Handle
  cooling setpoint,                       !- Name
  {8b40a19e-491d-40c2-a80d-71bfa7800fe3}, !- Schedule Type Limits Name
  {5427b25f-dd06-4d0e-a369-756d8f4ea8bd}; !- Default Day Schedule Name

OS:Schedule:Day,
  {5427b25f-dd06-4d0e-a369-756d8f4ea8bd}, !- Handle
  cooling setpoint default day,           !- Name
  {8b40a19e-491d-40c2-a80d-71bfa7800fe3}, !- Schedule Type Limits Name
  ,                                       !- Interpolate to Timestep
  24,                                     !- Hour 1
  0,                                      !- Minute 1
  0;                                      !- Value Until Time 1

OS:Schedule:Rule,
  {9608e1e0-9f3c-49a5-afe7-8f9cd6601a71}, !- Handle
  cooling setpoint allday rule,           !- Name
  {1da8c298-55b6-487d-ae49-ff537bfc026b}, !- Schedule Ruleset Name
  0,                                      !- Rule Order
  {9352a21d-a9df-415a-b390-eedff533a937}, !- Day Schedule Name
  Yes,                                    !- Apply Sunday
  Yes,                                    !- Apply Monday
  Yes,                                    !- Apply Tuesday
  Yes,                                    !- Apply Wednesday
  Yes,                                    !- Apply Thursday
  Yes,                                    !- Apply Friday
  Yes,                                    !- Apply Saturday
  DateRange,                              !- Date Specification Type
  1,                                      !- Start Month
  1,                                      !- Start Day
  12,                                     !- End Month
  31;                                     !- End Day

OS:Schedule:Day,
  {9352a21d-a9df-415a-b390-eedff533a937}, !- Handle
  cooling setpoint day,                   !- Name
  {8b40a19e-491d-40c2-a80d-71bfa7800fe3}, !- Schedule Type Limits Name
  ,                                       !- Interpolate to Timestep
  24,                                     !- Hour 1
  0,                                      !- Minute 1
  25.5555555555556;                       !- Value Until Time 1

OS:ThermostatSetpoint:DualSetpoint,
  {2e940ae4-9f6a-47ab-b105-dbd2bdf6e359}, !- Handle
  conditioned space temperature setpoint, !- Name
  {f739937b-148d-4772-bf23-c1a1e69719d2}, !- Heating Setpoint Temperature Schedule Name
  {1da8c298-55b6-487d-ae49-ff537bfc026b}, !- Cooling Setpoint Temperature Schedule Name
  0;                                      !- Temperature Difference Between Cutout And Setpoint {deltaC}

OS:ScheduleTypeLimits,
  {8b40a19e-491d-40c2-a80d-71bfa7800fe3}, !- Handle
  Temperature,                            !- Name
  ,                                       !- Lower Limit Value
  ,                                       !- Upper Limit Value
  Continuous,                             !- Numeric Type
  Temperature;                            !- Unit Type

OS:Surface,
  {c220f496-8913-4c1c-93bb-929fee1a572c}, !- Handle
  Wall1,                                  !- Name
  Wall,                                   !- Surface Type
  {f70e7bdf-f077-4988-9aa9-f90c2908624b}, !- Construction Name
  {d9785c86-f13f-4689-bc88-4a915ec33f58}, !- Space Name
  Outdoors,                               !- Outside Boundary Condition
  ,                                       !- Outside Boundary Condition Object
  SunExposed,                             !- Sun Exposure
  WindExposed,                            !- Wind Exposure
  ,                                       !- View Factor to Ground
  ,                                       !- Number of Vertices
  -41.694735, 42.6237654, 0,              !- X,Y,Z Vertex 1 {m}
  -41.694735, 42.6237654, 2.4384,         !- X,Y,Z Vertex 2 {m}
  -29.780865, 42.6237654, 2.4384,         !- X,Y,Z Vertex 3 {m}
  -29.780865, 42.6237654, 0;              !- X,Y,Z Vertex 4 {m}

OS:AdditionalProperties,
  {e50ba7b3-9156-40d6-af55-8bbafdc0402d}, !- Handle
  {c220f496-8913-4c1c-93bb-929fee1a572c}, !- Object Name
  Length,                                 !- Feature Name 1
  Double,                                 !- Feature Data Type 1
  39.087499999999999,                     !- Feature Value 1
  Azimuth,                                !- Feature Name 2
  Integer,                                !- Feature Data Type 2
  0,                                      !- Feature Value 2
  Tilt,                                   !- Feature Name 3
  Double,                                 !- Feature Data Type 3
  90,                                     !- Feature Value 3
  SurfaceType,                            !- Feature Name 4
  String,                                 !- Feature Data Type 4
  Wall;                                   !- Feature Value 4

OS:Material,
  {ee58a6e9-5c11-4ea1-88ee-8a9598148235}, !- Handle
  wood siding,                            !- Name
  Rough,                                  !- Roughness
  0.0254,                                 !- Thickness {m}
  0.1024175,                              !- Conductivity {W/m-K}
  544.68,                                 !- Density {kg/m3}
  1172.36,                                !- Specific Heat {J/kg-K}
  0.9,                                    !- Thermal Absorptance
  0.7,                                    !- Solar Absorptance
  0.7;                                    !- Visible Absorptance

OS:Material,
  {cde39c25-2719-4ba7-99d8-489cf170b2d2}, !- Handle
  osb sheathing 0.5 in.,                  !- Name
  Rough,                                  !- Roughness
  0.0127,                                 !- Thickness {m}
  0.1154577,                              !- Conductivity {W/m-K}
  512.64,                                 !- Density {kg/m3}
  1214.23,                                !- Specific Heat {J/kg-K}
  0.9,                                    !- Thermal Absorptance
  0.7,                                    !- Solar Absorptance
  0.7;                                    !- Visible Absorptance

OS:Material,
  {c9f44459-7990-4e7f-ad6f-9c1b23f25078}, !- Handle
  wall stud and cavity,                   !- Name
  Rough,                                  !- Roughness
  0.1397,                                 !- Thickness {m}
  0.0929021674204099,                     !- Conductivity {W/m-K}
  139.0536,                               !- Density {kg/m3}
  1170.23755760369,                       !- Specific Heat {J/kg-K}
  0.9,                                    !- Thermal Absorptance
  0.7,                                    !- Solar Absorptance
  0.7;                                    !- Visible Absorptance

OS:Material,
  {00883d7b-cf15-4262-b700-3bbf1a2ea935}, !- Handle
  gypsum board,                           !- Name
  Rough,                                  !- Roughness
  0.0127,                                 !- Thickness {m}
  0.1602906,                              !- Conductivity {W/m-K}
  801,                                    !- Density {kg/m3}
  837.4,                                  !- Specific Heat {J/kg-K}
  0.9,                                    !- Thermal Absorptance
  0.6,                                    !- Solar Absorptance
  0.6;                                    !- Visible Absorptance

OS:Construction,
  {f70e7bdf-f077-4988-9aa9-f90c2908624b}, !- Handle
  Wall1 construction,                     !- Name
  ,                                       !- Surface Rendering Name
  {ee58a6e9-5c11-4ea1-88ee-8a9598148235}, !- Layer 1
  {cde39c25-2719-4ba7-99d8-489cf170b2d2}, !- Layer 2
  {c9f44459-7990-4e7f-ad6f-9c1b23f25078}, !- Layer 3
  {00883d7b-cf15-4262-b700-3bbf1a2ea935}; !- Layer 4

OS:Surface,
  {5f05522f-88fc-44f3-a597-ebaee0e20937}, !- Handle
  Wall2,                                  !- Name
  Wall,                                   !- Surface Type
  {51c9213b-9547-440a-bce4-6ebf562b3125}, !- Construction Name
  {d9785c86-f13f-4689-bc88-4a915ec33f58}, !- Space Name
  Outdoors,                               !- Outside Boundary Condition
  ,                                       !- Outside Boundary Condition Object
  SunExposed,                             !- Sun Exposure
  WindExposed,                            !- Wind Exposure
  ,                                       !- View Factor to Ground
  ,                                       !- Number of Vertices
  42.6237654, -36.6687354, 0,             !- X,Y,Z Vertex 1 {m}
  42.6237654, -36.6687354, 2.4384,        !- X,Y,Z Vertex 2 {m}
  42.6237654, -42.6237654, 2.4384,        !- X,Y,Z Vertex 3 {m}
  42.6237654, -42.6237654, 0;             !- X,Y,Z Vertex 4 {m}

OS:AdditionalProperties,
  {6bab4d84-7586-4784-a9a9-2107c1c09139}, !- Handle
  {5f05522f-88fc-44f3-a597-ebaee0e20937}, !- Object Name
  Length,                                 !- Feature Name 1
  Double,                                 !- Feature Data Type 1
  19.537500000000001,                     !- Feature Value 1
  Azimuth,                                !- Feature Name 2
  Integer,                                !- Feature Data Type 2
  90,                                     !- Feature Value 2
  Tilt,                                   !- Feature Name 3
  Double,                                 !- Feature Data Type 3
  90,                                     !- Feature Value 3
  SurfaceType,                            !- Feature Name 4
  String,                                 !- Feature Data Type 4
  Wall;                                   !- Feature Value 4

OS:Construction,
  {51c9213b-9547-440a-bce4-6ebf562b3125}, !- Handle
  Wall2 construction,                     !- Name
  ,                                       !- Surface Rendering Name
  {ee58a6e9-5c11-4ea1-88ee-8a9598148235}, !- Layer 1
  {cde39c25-2719-4ba7-99d8-489cf170b2d2}, !- Layer 2
  {c9f44459-7990-4e7f-ad6f-9c1b23f25078}, !- Layer 3
  {00883d7b-cf15-4262-b700-3bbf1a2ea935}; !- Layer 4

OS:Surface,
  {e736e7ac-c1de-40a7-b534-69178054e4e3}, !- Handle
  Wall3,                                  !- Name
  Wall,                                   !- Surface Type
  {b3751418-b3df-453c-93c9-1c5f7fcce442}, !- Construction Name
  {d9785c86-f13f-4689-bc88-4a915ec33f58}, !- Space Name
  Outdoors,                               !- Outside Boundary Condition
  ,                                       !- Outside Boundary Condition Object
  SunExposed,                             !- Sun Exposure
  WindExposed,                            !- Wind Exposure
  ,                                       !- View Factor to Ground
  ,                                       !- Number of Vertices
  -29.6289219715142, -42.6237654, 0,      !- X,Y,Z Vertex 1 {m}
  -29.6289219715142, -42.6237654, 2.4384, !- X,Y,Z Vertex 2 {m}
  -40.7807919715142, -42.6237654, 2.4384, !- X,Y,Z Vertex 3 {m}
  -40.7807919715142, -42.6237654, 0;      !- X,Y,Z Vertex 4 {m}

OS:AdditionalProperties,
  {1f702d18-63bd-4704-ae2e-3d7c3c6c8a68}, !- Handle
  {e736e7ac-c1de-40a7-b534-69178054e4e3}, !- Object Name
  Length,                                 !- Feature Name 1
  Double,                                 !- Feature Data Type 1
  36.587499999999999,                     !- Feature Value 1
  Azimuth,                                !- Feature Name 2
  Integer,                                !- Feature Data Type 2
  180,                                    !- Feature Value 2
  Tilt,                                   !- Feature Name 3
  Double,                                 !- Feature Data Type 3
  90,                                     !- Feature Value 3
  SurfaceType,                            !- Feature Name 4
  String,                                 !- Feature Data Type 4
  Wall;                                   !- Feature Value 4

OS:Construction,
  {b3751418-b3df-453c-93c9-1c5f7fcce442}, !- Handle
  Wall3 construction,                     !- Name
  ,                                       !- Surface Rendering Name
  {ee58a6e9-5c11-4ea1-88ee-8a9598148235}, !- Layer 1
  {cde39c25-2719-4ba7-99d8-489cf170b2d2}, !- Layer 2
  {c9f44459-7990-4e7f-ad6f-9c1b23f25078}, !- Layer 3
  {00883d7b-cf15-4262-b700-3bbf1a2ea935}; !- Layer 4

OS:Surface,
  {0c91c383-25ed-4bc9-914e-e4af1b0d610e}, !- Handle
  Wall4,                                  !- Name
  Wall,                                   !- Surface Type
  {a9b71a4f-21a2-4f0a-bdd1-f6c89abc7426}, !- Construction Name
  {d9785c86-f13f-4689-bc88-4a915ec33f58}, !- Space Name
  Outdoors,                               !- Outside Boundary Condition
  ,                                       !- Outside Boundary Condition Object
  SunExposed,                             !- Sun Exposure
  WindExposed,                            !- Wind Exposure
  ,                                       !- View Factor to Ground
  ,                                       !- Number of Vertices
  -42.6237654, 36.6687354, 0,             !- X,Y,Z Vertex 1 {m}
  -42.6237654, 36.6687354, 2.4384,        !- X,Y,Z Vertex 2 {m}
  -42.6237654, 42.6237654, 2.4384,        !- X,Y,Z Vertex 3 {m}
  -42.6237654, 42.6237654, 0;             !- X,Y,Z Vertex 4 {m}

OS:AdditionalProperties,
  {0cea3bf2-6c49-4665-bd05-7cd7f70be59d}, !- Handle
  {0c91c383-25ed-4bc9-914e-e4af1b0d610e}, !- Object Name
  Length,                                 !- Feature Name 1