
OS:Version,
  {c621acc5-20e1-4247-8af5-2d523e9c36b1}, !- Handle
  3.10.0;                                 !- Version Identifier

OS:SimulationControl,
  {0faea1a1-1aad-4c22-bf0f-227b5b46aed3}, !- Handle
  ,                                       !- Do Zone Sizing Calculation
  ,                                       !- Do System Sizing Calculation
  ,                                       !- Do Plant Sizing Calculation
  No;                                     !- Run Simulation for Sizing Periods

OS:Timestep,
  {bc1cc47f-053b-4127-be8f-b682f21e0a61}, !- Handle
  1;                                      !- Number of Timesteps per Hour

OS:ShadowCalculation,
  {d5787643-e875-455c-837d-66fe6ac76938}, !- Handle
  PolygonClipping,                        !- Shading Calculation Method
  ,                                       !- Shading Calculation Update Frequency Method
  20,                                     !- Shading Calculation Update Frequency
  200,                                    !- Maximum Figures in Shadow Overlap Calculations
  ,                                       !- Polygon Clipping Algorithm
  512,                                    !- Pixel Counting Resolution
  ,                                       !- Sky Diffuse Modeling Algorithm
  No,                                     !- Output External Shading Calculation Results
  No,                                     !- Disable Self-Shading Within Shading Zone Groups
  No;                                     !- Disable Self-Shading From Shading Zone Groups to Other Zones

OS:SurfaceConvectionAlgorithm:Outside,
  {cf4fe868-347d-43d8-a5b1-a0f2c00f5f05}, !- Handle
  DOE-2;                                  !- Algorithm

OS:SurfaceConvectionAlgorithm:Inside,
  {16c89154-0ed5-4e43-97cd-cd5053320dcc}, !- Handle
  TARP;                                   !- Algorithm

OS:ZoneCapacitanceMultiplier:ResearchSpecial,
  {1f664e69-9f61-4700-ad31-117e939a22f5}, !- Handle
  7,                                      !- Temperature Capacity Multiplier
  15,                                     !- Humidity Capacity Multiplier
  ;                                       !- Carbon Dioxide Capacity Multiplier

OS:ConvergenceLimits,
  {43a1f66b-be9e-4e45-a86e-747966bccf29}, !- Handle
  0;                                      !- Minimum System Timestep {minutes}

OS:RunPeriod,
  {024d315a-67c3-4520-b588-7a0dbafe96db}, !- Handle
  Run Period 1,                           !- Name
  1,                                      !- Begin Month
  1,                                      !- Begin Day of Month
  12,                                     !- End Month
  31,                                     !- End Day of Month
  ,                                       !- Use Weather File Holidays and Special Days
  ,                                       !- Use Weather File Daylight Saving Period
  ,                                       !- Apply Weekend Holiday Rule
  ,                                       !- Use Weather File Rain Indicators
  ,                                       !- Use Weather File Snow Indicators
  ;                                       !- Number of Times Runperiod to be Repeated

OS:PerformancePrecisionTradeoffs,
  {06491481-9d52-4add-a3f4-1cd18be7cdea}, !- Handle
  ,                                       !- Use Coil Direct Solutions
  CarrollMRT;                             !- Zone Radiant Exchange Algorithm

OS:WeatherFile,
  {35ea0232-f633-485a-bf5b-dfd7db9e6440}, !- Handle
  Buffalo Niagara Intl Ap,                !- City
  NY,                                     !- State Province Region
  USA,                                    !- Country
  TMY3,                                   !- Data Source
  725280,                                 !- WMO Number
  42.93,                                  !- Latitude {deg}
  -78.73,                                 !- Longitude {deg}
  -5,                                     !- Time Zone {hr}
  215,                                    !- Elevation {m}
  /Users/nmoore/github/urbanopt-example-geojson-project/example_project/weather/USA_NY_Buffalo-Greater.Buffalo.Intl.AP.725280_TMY3.epw, !- Url
  6B50E0FF,                               !- Checksum
  ,                                       !- Start Date Actual Year
  Sunday;                                 !- Start Day of Week

OS:YearDescription,
  {b0f2eca6-df4c-45f4-a619-3329db835940}, !- Handle
  2007,                                   !- Calendar Year
  ,                                       !- Day of Week for Start Day
  ;                                       !- Is Leap Year

OS:Site,
  {25013896-7c37-47fc-a8ae-7428c1e3243a}, !- Handle
  Buffalo Niagara Intl Ap_NY,             !- Name
  42.93,                                  !- Latitude {deg}
  -78.73,                                 !- Longitude {deg}
  -5,                                     !- Time Zone {hr}
  215,                                    !- Elevation {m}
  Suburbs,                                !- Terrain
  Yes;                                    !- Keep Site Location Information

OS:RunPeriodControl:DaylightSavingTime,
  {134c38ba-7558-468f-a8af-d1ac1249bcf1}, !- Handle
  Mar 12,                                 !- Start Date
  Nov 5;                                  !- End Date

OS:Site:GroundTemperature:Shallow,
  {58d9e91a-e74d-4519-9553-6126c621b427}, !- Handle
  4.30207395723828,                       !- January Surface Ground Temperature {C}
  2.29327249652502,                       !- February Surface Ground Temperature {C}
  2.13240047156047,                       !- March Surface Ground Temperature {C}
  3.08567940719286,                       !- April Surface Ground Temperature {C}
  6.91256312497526,                       !- May Surface Ground Temperature {C}
  10.7216195949507,                       !- June Surface Ground Temperature {C}
  14.0238679822574,                       !- July Surface Ground Temperature {C}
  16.1157611184724,                       !- August Surface Ground Temperature {C}
  16.2934789303462,                       !- September Surface Ground Temperature {C}
  14.5920754632847,                       !- October Surface Ground Temperature {C}
  11.374036348653,                        !- November Surface Ground Temperature {C}
  7.68182621661674;                       !- December Surface Ground Temperature {C}

OS:ThermalZone,
  {893665ef-a740-4db2-92b6-aeafecc8453c}, !- Handle
  conditioned space,                      !- Name
  1,                                      !- Multiplier
  ,                                       !- Ceiling Height {m}
  346.03186535424,                        !- Volume {m3}
  ,                                       !- Floor Area {m2}
  ,                                       !- Zone Inside Convection Algorithm
  ,                                       !- Zone Outside Convection Algorithm
  ,                                       !- Zone Conditioning Equipment List Name
  {8e4f3ff1-15db-4a2d-aad1-8cd194dc933d}, !- Zone Air Inlet Port List
  {b08e2822-1a0d-460a-858c-ce9afb41037e}, !- Zone Air Exhaust Port List
  {6d1420a6-3a96-4b0b-af40-6d0dbaf6e2df}, !- Zone Air Node Name
  {30a85550-9b2f-4120-8189-fb4893c677e3}, !- Zone Return Air Port List
  ,                                       !- Primary Daylighting Control Name
  ,                                       !- Fraction of Zone Controlled by Primary Daylighting Control
  ,                                       !- Secondary Daylighting Control Name
  ,                                       !- Fraction of Zone Controlled by Secondary Daylighting Control
  ,                                       !- Illuminance Map Name
  ,                                       !- Group Rendering Name
  {e0086faa-759a-4943-989b-866b461fbf5a}, !- Thermostat Name
  No;                                     !- Use Ideal Air Loads

OS:Node,
  {de0bad5c-3be3-4dba-aa94-fc4c7cfae9af}, !- Handle
  Node 1,                                 !- Name
  {6d1420a6-3a96-4b0b-af40-6d0dbaf6e2df}, !- Inlet Port
  ;                                       !- Outlet Port

OS:Connection,
  {6d1420a6-3a96-4b0b-af40-6d0dbaf6e2df}, !- Handle
  {893665ef-a740-4db2-92b6-aeafecc8453c}, !- Source Object
  11,                                     !- Outlet Port
  {de0bad5c-3be3-4dba-aa94-fc4c7cfae9af}, !- Target Object
  2;                                      !- Inlet Port

OS:PortList,
  {8e4f3ff1-15db-4a2d-aad1-8cd194dc933d}, !- Handle
  {893665ef-a740-4db2-92b6-aeafecc8453c}, !- HVAC Component
  {598a2d96-e08c-4e2d-8c37-6a33b084fd12}; !- Port 1

OS:PortList,
  {b08e2822-1a0d-460a-858c-ce9afb41037e}, !- Handle
  {893665ef-a740-4db2-92b6-aeafecc8453c}; !- HVAC Component

OS:PortList,
  {30a85550-9b2f-4120-8189-fb4893c677e3}, !- Handle
  {893665ef-a740-4db2-92b6-aeafecc8453c}, !- HVAC Component
  {17f94faf-3a7a-41ae-a109-37db861236f7}; !- Port 1

OS:Sizing:Zone,
  {ae7c6a74-a322-4518-b17e-2d781799fafa}, !- Handle
  {893665ef-a740-4db2-92b6-aeafecc8453c}, !- Zone or ZoneList Name
  SupplyAirTemperature,                   !- Zone Cooling Design Supply Air Temperature Input Method
  14,                                     !- Zone Cooling Design Supply Air Temperature {C}
  11.11,                                  !- Zone Cooling Design Supply Air Temperature Difference {deltaC}
  SupplyAirTemperature,                   !- Zone Heating Design Supply Air Temperature Input Method
  40,                                     !- Zone Heating Design Supply Air Temperature {C}
  11.11,                                  !- Zone Heating Design Supply Air Temperature Difference {deltaC}
  0.0085,                                 !- Zone Cooling Design Supply Air Humidity Ratio {kg-H2O/kg-air}
  0.008,                                  !- Zone Heating Design Supply Air Humidity Ratio {kg-H2O/kg-air}
  ,                                       !- Zone Heating Sizing Factor
  ,                                       !- Zone Cooling Sizing Factor
  DesignDay,                              !- Cooling Design Air Flow Method
  ,                                       !- Cooling Design Air Flow Rate {m3/s}
  ,                                       !- Cooling Minimum Air Flow per Zone Floor Area {m3/s-m2}
  ,                                       !- Cooling Minimum Air Flow {m3/s}
  ,                                       !- Cooling Minimum Air Flow Fraction
  DesignDay,                              !- Heating Design Air Flow Method
  ,                                       !- Heating Design Air Flow Rate {m3/s}
  ,                                       !- Heating Maximum Air Flow per Zone Floor Area {m3/s-m2}
  ,                                       !- Heating Maximum Air Flow {m3/s}
  ,                                       !- Heating Maximum Air Flow Fraction
  No,                                     !- Account for Dedicated Outdoor Air System
  NeutralSupplyAir,                       !- Dedicated Outdoor Air System Control Strategy
  autosize,                               !- Dedicated Outdoor Air Low Setpoint Temperature for Design {C}
  autosize,                               !- Dedicated Outdoor Air High Setpoint Temperature for Design {C}
  Sensible Load Only No Latent Load,      !- Zone Load Sizing Method
  HumidityRatioDifference,                !- Zone Latent Cooling Design Supply Air Humidity Ratio Input Method
  ,                                       !- Zone Dehumidification Design Supply Air Humidity Ratio {kgWater/kgDryAir}
  0.005,                                  !- Zone Cooling Design Supply Air Humidity Ratio Difference {kgWater/kgDryAir}
  HumidityRatioDifference,                !- Zone Latent Heating Design Supply Air Humidity Ratio Input Method
  ,                                       !- Zone Humidification Design Supply Air Humidity Ratio {kgWater/kgDryAir}
  0.005,                                  !- Zone Humidification Design Supply Air Humidity Ratio Difference {kgWater/kgDryAir}
  ,                                       !- Zone Humidistat Dehumidification Set Point Schedule Name
  ,                                       !- Zone Humidistat Humidification Set Point Schedule Name
  ,                                       !- Design Zone Air Distribution Effectiveness in Cooling Mode
  ,                                       !- Design Zone Air Distribution Effectiveness in Heating Mode
  ,                                       !- Design Zone Secondary Recirculation Fraction {dimensionless}
  ,                                       !- Design Minimum Zone Ventilation Efficiency {dimensionless}
  Coincident;                             !- Sizing Option

OS:ZoneHVAC:EquipmentList,
  {bbf34d12-2c7c-4d20-96af-1a7bc2c801b0}, !- Handle
  Zone HVAC Equipment List 1,             !- Name
  {893665ef-a740-4db2-92b6-aeafecc8453c}, !- Thermal Zone
  ,                                       !- Load Distribution Scheme
  {8fa0dea8-806e-45d7-bf2c-69e7c7bfd0d3}, !- Zone Equipment 1
  1,                                      !- Zone Equipment Cooling Sequence 1
  1,                                      !- Zone Equipment Heating or No-Load Sequence 1
  {7fd7491b-63fc-42f6-b611-fdbf10bc4156}, !- Zone Equipment Sequential Cooling Fraction Schedule Name 1
  {66f4ac38-81a6-45e6-81e6-92c11e3271df}; !- Zone Equipment Sequential Heating Fraction Schedule Name 1

OS:AdditionalProperties,
  {4c59a2b8-2176-485a-ac54-af71c7dfc931}, !- Handle
  {893665ef-a740-4db2-92b6-aeafecc8453c}, !- Object Name
  ObjectType,                             !- Feature Name 1
  String,                                 !- Feature Data Type 1
  conditioned space;                      !- Feature Value 1

OS:Space,
  {d588fb71-f0e8-43fa-b528-572570eea90b}, !- Handle
  conditioned space 1,                    !- Name
  ,                                       !- Space Type Name
  ,                                       !- Default Construction Set Name
  ,                                       !- Default Schedule Set Name
  ,                                       !- Direction of Relative North {deg}
  ,                                       !- X Origin {m}
  ,                                       !- Y Origin {m}
  ,                                       !- Z Origin {m}
  ,                                       !- Building Story Name
  {893665ef-a740-4db2-92b6-aeafecc8453c}, !- Thermal Zone Name
  ,                                       !- Part of Total Floor Area
  ,                                       !- Design Specification Outdoor Air Object Name
  ,                                       !- Building Unit Name
  346.03186535424;                        !- Volume {m3}

OS:Schedule:Ruleset,
  {a65ab4cf-0ea9-4464-93d5-d45c6a164f48}, !- Handle
  heating setpoint,                       !- Name
  {87ba563a-e889-4c24-8bf1-2481132d3054}, !- Schedule Type Limits Name
  {0d1c182e-72e7-4501-bcdb-a8e30bb7a5c7}; !- Default Day Schedule Name

OS:Schedule:Day,
  {0d1c182e-72e7-4501-bcdb-a8e30bb7a5c7}, !- Handle
  heating setpoint default day,           !- Name
  {87ba563a-e889-4c24-8bf1-2481132d3054}, !- Schedule Type Limits Name
  ,                                       !- Interpolate to Timestep
  24,                                     !- Hour 1
  0,                                      !- Minute 1
  0;                                      !- Value Until Time 1

OS:Schedule:Rule,
  {b91ffefb-9689-4fb3-97d2-d25426b0765e}, !- Handle
  heating setpoint allday rule,           !- Name
  {a65ab4cf-0ea9-4464-93d5-d45c6a164f48}, !- Schedule Ruleset Name
  0,                                      !- Rule Order
  {b9e247bf-7054-448d-8628-687747ff3872}, !- Day Schedule Name
  Yes,                                    !- Apply Sunday
  Yes,                                    !- Apply Monday
  Yes,                                    !- Apply Tuesday
  Yes,                                    !- Apply Wednesday
  Yes,                                    !- Apply Thursday
  Yes,                                    !- Apply Friday
  Yes,                                    !- Apply Saturday
  DateRange,                              !- Date Specification Type
  1,                                      !- Start Month
  1,                                      !- Start Day
  12,                                     !- End Month
  31;                                     !- End Day

OS:Schedule:Day,
  {b9e247bf-7054-448d-8628-687747ff3872}, !- Handle
  heating setpoint day,                   !- Name
  {87ba563a-e889-4c24-8bf1-2481132d3054}, !- Schedule Type Limits Name
  ,                                       !- Interpolate to Timestep
  24,                                     !- Hour 1
  0,                                      !- Minute 1
  20;                                     !- Value Until Time 1

OS:Schedule:Ruleset,
  {0ab3dd65-7c38-4abc-8cc4-0bc6c4e54257}, !- Handle
  cooling setpoint,                       !- Name
  {87ba563a-e889-4c24-8bf1-2481132d3054}, !- Schedule Type Limits Name
  {17ca28e6-38fd-42b5-801b-d1c5e148fb5e}; !- Default Day Schedule Name

OS:Schedule:Day,
  {17ca28e6-38fd-42b5-801b-d1c5e148fb5e}, !- Handle
  cooling setpoint default day,           !- Name
  {87ba563a-e889-4c24-8bf1-2481132d3054}, !- Schedule Type Limits Name
  ,                                       !- Interpolate to Timestep
  24,                                     !- Hour 1
  0,                                      !- Minute 1
  0;                                      !- Value Until Time 1

OS:Schedule:Rule,
  {8f8ee1d3-3afe-43e1-81ca-3f3dc6f6ab04}, !- Handle
  cooling setpoint allday rule,           !- Name
  {0ab3dd65-7c38-4abc-8cc4-0bc6c4e54257}, !- Schedule Ruleset Name
  0,                                      !- Rule Order
  {6b24aa7b-e641-4897-9080-2684ba679974}, !- Day Schedule Name
  Yes,                                    !- Apply Sunday
  Yes,                                    !- Apply Monday
  Yes,                                    !- Apply Tuesday
  Yes,                                    !- Apply Wednesday
  Yes,                                    !- Apply Thursday
  Yes,                                    !- Apply Friday
  Yes,                                    !- Apply Saturday
  DateRange,                              !- Date Specification Type
  1,                                      !- Start Month
  1,                                      !- Start Day
  12,                                     !- End Month
  31;                                     !- End Day

OS:Schedule:Day,
  {6b24aa7b-e641-4897-9080-2684ba679974}, !- Handle
  cooling setpoint day,                   !- Name
  {87ba563a-e889-4c24-8bf1-2481132d3054}, !- Schedule Type Limits Name
  ,                                       !- Interpolate to Timestep
  24,                                     !- Hour 1
  0,                                      !- Minute 1
  25.5555555555556;                       !- Value Until Time 1

OS:ThermostatSetpoint:DualSetpoint,
  {e0086faa-759a-4943-989b-866b461fbf5a}, !- Handle
  conditioned space temperature setpoint, !- Name
  {a65ab4cf-0ea9-4464-93d5-d45c6a164f48}, !- Heating Setpoint Temperature Schedule Name
  {0ab3dd65-7c38-4abc-8cc4-0bc6c4e54257}, !- Cooling Setpoint Temperature Schedule Name
  0;                                      !- Temperature Difference Between Cutout And Setpoint {deltaC}

OS:ScheduleTypeLimits,
  {87ba563a-e889-4c24-8bf1-2481132d3054}, !- Handle
  Temperature,                            !- Name
  ,                                       !- Lower Limit Value
  ,                                       !- Upper Limit Value
  Continuous,                             !- Numeric Type
  Temperature;                            !- Unit Type

OS:Surface,
  {1ffc0937-6b13-4434-b2d8-53c956010920}, !- Handle
  Wall1,                                  !- Name
  Wall,                                   !- Surface Type
  {4a21ca0f-7465-44b7-a92a-c1f8a9090604}, !- Construction Name
  {d588fb71-f0e8-43fa-b528-572570eea90b}, !- Space Name
  Outdoors,                               !- Outside Boundary Condition
  ,                                       !- Outside Boundary Condition Object
  SunExposed,                             !- Sun Exposure
  WindExposed,                            !- Wind Exposure
  ,                                       !- View Factor to Ground
  ,                                       !- Number of Vertices
  -41.694735, 42.6237654, 0,              !- X,Y,Z Vertex 1 {m}
  -41.694735, 42.6237654, 2.4384,         !- X,Y,Z Vertex 2 {m}
  -29.780865, 42.6237654, 2.4384,         !- X,Y,Z Vertex 3 {m}
  -29.780865, 42.6237654, 0;              !- X,Y,Z Vertex 4 {m}

OS:AdditionalProperties,
  {aba76966-84d3-4bec-a8c9-6a3cfd883b37}, !- Handle
  {1ffc0937-6b13-4434-b2d8-53c956010920}, !- Object Name
  Length,                                 !- Feature Name 1
  Double,                                 !- Feature Data Type 1
  39.087499999999999,                     !- Feature Value 1
  Azimuth,                                !- Feature Name 2
  Integer,                                !- Feature Data Type 2
  0,                                      !- Feature Value 2
  Tilt,                                   !- Feature Name 3
  Double,                                 !- Feature Data Type 3
  90,                                     !- Feature Value 3
  SurfaceType,                            !- Feature Name 4
  String,                                 !- Feature Data Type 4
  Wall;                                   !- Feature Value 4

OS:Material,
  {fa0e2fa8-b7a7-47be-a514-d2379b9a7fae}, !- Handle
  wood siding,                            !- Name
  Rough,                                  !- Roughness
  0.0254,                                 !- Thickness {m}
  0.1024175,                              !- Conductivity {W/m-K}
  544.68,                                 !- Density {kg/m3}
  1172.36,                                !- Specific Heat {J/kg-K}
  0.9,                                    !- Thermal Absorptance
  0.7,                                    !- Solar Absorptance
  0.7;                                    !- Visible Absorptance

OS:Material,
  {f87d06d0-73dc-4ca7-b695-185992dda0f5}, !- Handle
  osb sheathing 0.5 in.,                  !- Name
  Rough,                                  !- Roughness
  0.0127,                                 !- Thickness {m}
  0.1154577,                              !- Conductivity {W/m-K}
  512.64,                                 !- Density {kg/m3}
  1214.23,                                !- Specific Heat {J/kg-K}
  0.9,                                    !- Thermal Absorptance
  0.7,                                    !- Solar Absorptance
  0.7;                                    !- Visible Absorptance

OS:Material,
  {ea028c01-9f7c-455e-90a7-eb186064b5c0}, !- Handle
  wall stud and cavity,                   !- Name
  Rough,                                  !- Roughness
  0.1397,                                 !- Thickness {m}
  0.0929021674204099,                     !- Conductivity {W/m-K}
  139.0536,                               !- Density {kg/m3}
  1170.23755760369,                       !- Specific Heat {J/kg-K}
  0.9,                                    !- Thermal Absorptance
  0.7,                                    !- Solar Absorptance
  0.7;                                    !- Visible Absorptance

OS:Material,
  {642bd5ba-6d19-4973-9782-952252b5a2c5}, !- Handle
  gypsum board,                           !- Name
  Rough,                                  !- Roughness
  0.0127,                                 !- Thickness {m}
  0.1602906,                              !- Conductivity {W/m-K}
  801,                                    !- Density {kg/m3}
  837.4,                                  !- Specific Heat {J/kg-K}
  0.9,                                    !- Thermal Absorptance
  0.6,                                    !- Solar Absorptance
  0.6;                                    !- Visible Absorptance

OS:Construction,
  {4a21ca0f-7465-44b7-a92a-c1f8a9090604}, !- Handle
  Wall1 construction,                     !- Name
  ,                                       !- Surface Rendering Name
  {fa0e2fa8-b7a7-47be-a514-d2379b9a7fae}, !- Layer 1
  {f87d06d0-73dc-4ca7-b695-185992dda0f5}, !- Layer 2
  {ea028c01-9f7c-455e-90a7-eb186064b5c0}, !- Layer 3
  {642bd5ba-6d19-4973-9782-952252b5a2c5}; !- Layer 4

OS:Surface,
  {3bbdc02c-4a7d-4acc-ac43-6e5f968ad530}, !- Handle
  Wall2,                                  !- Name
  Wall,                                   !- Surface Type
  {62db9fe1-9aed-47bc-aee0-2ec2ccaa2537}, !- Construction Name
  {d588fb71-f0e8-43fa-b528-572570eea90b}, !- Space Name
  Outdoors,                               !- Outside Boundary Condition
  ,                                       !- Outside Boundary Condition Object
  SunExposed,                             !- Sun Exposure
  WindExposed,                            !- Wind Exposure
  ,                                       !- View Factor to Ground
  ,                                       !- Number of Vertices
  42.6237654, -36.6687354, 0,             !- X,Y,Z Vertex 1 {m}
  42.6237654, -36.6687354, 2.4384,        !- X,Y,Z Vertex 2 {m}
  42.6237654, -42.6237654, 2.4384,        !- X,Y,Z Vertex 3 {m}
  42.6237654, -42.6237654, 0;             !- X,Y,Z Vertex 4 {m}

OS:AdditionalProperties,
  {da795185-a12b-4339-a36d-7c5970bcfd89}, !- Handle
  {3bbdc02c-4a7d-4acc-ac43-6e5f968ad530}, !- Object Name
  Length,                                 !- Feature Name 1
  Double,                                 !- Feature Data Type 1
  19.537500000000001,                     !- Feature Value 1
  Azimuth,                                !- Feature Name 2
  Integer,                                !- Feature Data Type 2
  90,                                     !- Feature Value 2
  Tilt,                                   !- Feature Name 3
  Double,                                 !- Feature Data Type 3
  90,                                     !- Feature Value 3
  SurfaceType,                            !- Feature Name 4
  String,                                 !- Feature Data Type 4
  Wall;                                   !- Feature Value 4

OS:Construction,
  {62db9fe1-9aed-47bc-aee0-2ec2ccaa2537}, !- Handle
  Wall2 construction,                     !- Name
  ,                                       !- Surface Rendering Name
  {fa0e2fa8-b7a7-47be-a514-d2379b9a7fae}, !- Layer 1
  {f87d06d0-73dc-4ca7-b695-185992dda0f5}, !- Layer 2
  {ea028c01-9f7c-455e-90a7-eb186064b5c0}, !- Layer 3
  {642bd5ba-6d19-4973-9782-952252b5a2c5}; !- Layer 4

OS:Surface,
  {4f9231f4-654d-4625-b115-ddb456005285}, !- Handle
  Wall3,                                  !- Name
  Wall,                                   !- Surface Type
  {b5136e14-15c0-4ca5-b3e4-e6b7b387e8fd}, !- Construction Name
  {d588fb71-f0e8-43fa-b528-572570eea90b}, !- Space Name
  Outdoors,                               !- Outside Boundary Condition
  ,                                       !- Outside Boundary Condition Object
  SunExposed,                             !- Sun Exposure
  WindExposed,                            !- Wind Exposure
  ,                                       !- View Factor to Ground
  ,                                       !- Number of Vertices
  -29.6289219715142, -42.6237654, 0,      !- X,Y,Z Vertex 1 {m}
  -29.6289219715142, -42.6237654, 2.4384, !- X,Y,Z Vertex 2 {m}
  -40.7807919715142, -42.6237654, 2.4384, !- X,Y,Z Vertex 3 {m}
  -40.7807919715142, -42.6237654, 0;      !- X,Y,Z Vertex 4 {m}

OS:AdditionalProperties,
  {4b8b9b57-1724-4be5-bc8b-f14719135e5f}, !- Handle
  {4f9231f4-654d-4625-b115-ddb456005285}, !- Object Name
  Length,                                 !- Feature Name 1
  Double,                                 !- Feature Data Type 1
  36.587499999999999,                     !- Feature Value 1
  Azimuth,                                !- Feature Name 2
  Integer,                                !- Feature Data Type 2
  180,                                    !- Feature Value 2
  Tilt,                                   !- Feature Name 3
  Double,                                 !- Feature Data Type 3
  90,                                     !- Feature Value 3
  SurfaceType,                            !- Feature Name 4
  String,                                 !- Feature Data Type 4
  Wall;                                   !- Feature Value 4

OS:Construction,
  {b5136e14-15c0-4ca5-b3e4-e6b7b387e8fd}, !- Handle
  Wall3 construction,                     !- Name
  ,                                       !- Surface Rendering Name
  {fa0e2fa8-b7a7-47be-a514-d2379b9a7fae}, !- Layer 1
  {f87d06d0-73dc-4ca7-b695-185992dda0f5}, !- Layer 2
  {ea028c01-9f7c-455e-90a7-eb186064b5c0}, !- Layer 3
  {642bd5ba-6d19-4973-9782-952252b5a2c5}; !- Layer 4

OS:Surface,
  {eb00d4f7-684a-464c-a7f7-fc676ed3c190}, !- Handle
  Wall4,                                  !- Name
  Wall,                                   !- Surface Type
  {b4a6253c-0f72-4c47-a84d-959bd91b828e}, !- Construction Name
  {d588fb71-f0e8-43fa-b528-572570eea90b}, !- Space Name
  Outdoors,                               !- Outside Boundary Condition
  ,                                       !- Outside Boundary Condition Object
  SunExposed,                             !- Sun Exposure
  WindExposed,                            !- Wind Exposure
  ,                                       !- View Factor to Ground
  ,                                       !- Number of Vertices
  -42.6237654, 36.6687354, 0,             !- X,Y,Z Vertex 1 {m}
  -42.6237654, 36.6687354, 2.4384,        !- X,Y,Z Vertex 2 {m}
  -42.6237654, 42.6237654, 2.4384,        !- X,Y,Z Vertex 3 {m}
  -42.6237654, 42.6237654, 0;             !- X,Y,Z Vertex 4 {m}

OS:AdditionalProperties,
  {f8565695-fd72-4a6c-9644-ba1da3668735}, !- Handle
  {eb00d4f7-684a-464c-a7f7-fc676ed3c190}, !- Object Name
  Length,                                 !- Feature Name 1