
OS:Version,
  {d139a746-ed5e-465e-8deb-5ea37db25e39}, !- Handle
  3.9.0;                                  !- Version Identifier

OS:SimulationControl,
  {ce1d92f7-f3b0-4ca9-af45-18ddcc3c87cf}, !- Handle
  ,                                       !- Do Zone Sizing Calculation
  ,                                       !- Do System Sizing Calculation
  ,                                       !- Do Plant Sizing Calculation
  No;                                     !- Run Simulation for Sizing Periods

OS:Timestep,
  {8851d3b6-f630-4e32-bf5e-8a57af69883b}, !- Handle
  1;                                      !- Number of Timesteps per Hour

OS:ShadowCalculation,
  {aae6b6f9-04af-41c8-9fbd-f6c27821b37d}, !- Handle
  PolygonClipping,                        !- Shading Calculation Method
  ,                                       !- Shading Calculation Update Frequency Method
  20,                                     !- Shading Calculation Update Frequency
  200,                                    !- Maximum Figures in Shadow Overlap Calculations
  ,                                       !- Polygon Clipping Algorithm
  512,                                    !- Pixel Counting Resolution
  ,                                       !- Sky Diffuse Modeling Algorithm
  No,                                     !- Output External Shading Calculation Results
  No,                                     !- Disable Self-Shading Within Shading Zone Groups
  No;                                     !- Disable Self-Shading From Shading Zone Groups to Other Zones

OS:SurfaceConvectionAlgorithm:Outside,
  {83158e99-2311-4434-9b4f-9d229c08dd99}, !- Handle
  DOE-2;                                  !- Algorithm

OS:SurfaceConvectionAlgorithm:Inside,
  {cd041dd4-9256-40fb-99bf-3ec3fc646290}, !- Handle
  TARP;                                   !- Algorithm

OS:ZoneCapacitanceMultiplier:ResearchSpecial,
  {b96552d3-5c00-4e72-bc3f-55cac4c3c333}, !- Handle
  7,                                      !- Temperature Capacity Multiplier
  15,                                     !- Humidity Capacity Multiplier
  ;                                       !- Carbon Dioxide Capacity Multiplier

OS:ConvergenceLimits,
  {c54bf40e-a80f-415f-a20a-15d646c95fbd}, !- Handle
  0;                                      !- Minimum System Timestep {minutes}

OS:RunPeriod,
  {543dda5b-84ae-493a-8733-bafada93e2e3}, !- Handle
  Run Period 1,                           !- Name
  1,                                      !- Begin Month
  1,                                      !- Begin Day of Month
  12,                                     !- End Month
  31,                                     !- End Day of Month
  ,                                       !- Use Weather File Holidays and Special Days
  ,                                       !- Use Weather File Daylight Saving Period
  ,                                       !- Apply Weekend Holiday Rule
  ,                                       !- Use Weather File Rain Indicators
  ,                                       !- Use Weather File Snow Indicators
  ;                                       !- Number of Times Runperiod to be Repeated

OS:PerformancePrecisionTradeoffs,
  {26e83817-3a04-4a26-b273-3dfc1bf13245}, !- Handle
  ,                                       !- Use Coil Direct Solutions
  CarrollMRT;                             !- Zone Radiant Exchange Algorithm

OS:WeatherFile,
  {fbe3a08a-1ff5-40ca-ad28-41e978404a58}, !- Handle
  Buffalo Niagara Intl Ap,                !- City
  NY,                                     !- State Province Region
  USA,                                    !- Country
  TMY3,                                   !- Data Source
  725280,                                 !- WMO Number
  42.93,                                  !- Latitude {deg}
  -78.73,                                 !- Longitude {deg}
  -5,                                     !- Time Zone {hr}
  215,                                    !- Elevation {m}
  /Users/nmoore/github/urbanopt-example-geojson-project/example_project/weather/USA_NY_Buffalo-Greater.Buffalo.Intl.AP.725280_TMY3.epw, !- Url
  6B50E0FF,                               !- Checksum
  ,                                       !- Start Date Actual Year
  Sunday;                                 !- Start Day of Week

OS:YearDescription,
  {4aa97cc5-0ade-420e-93dc-67b9fd1048e6}, !- Handle
  2007,                                   !- Calendar Year
  ,                                       !- Day of Week for Start Day
  ;                                       !- Is Leap Year

OS:Site,
  {5ae606ca-e5f2-4ebf-8e08-c4cb05768ed8}, !- Handle
  Buffalo Niagara Intl Ap_NY,             !- Name
  42.93,                                  !- Latitude {deg}
  -78.73,                                 !- Longitude {deg}
  -5,                                     !- Time Zone {hr}
  215,                                    !- Elevation {m}
  Suburbs,                                !- Terrain
  Yes;                                    !- Keep Site Location Information

OS:RunPeriodControl:DaylightSavingTime,
  {fb8d250e-6cf0-40cf-a6a6-09c380cf2b99}, !- Handle
  Mar 12,                                 !- Start Date
  Nov 5;                                  !- End Date

OS:Site:GroundTemperature:Shallow,
  {64a4a175-8f24-4acb-a7d1-0a0469801d85}, !- Handle
  4.30207395723828,                       !- January Surface Ground Temperature {C}
  2.29327249652502,                       !- February Surface Ground Temperature {C}
  2.13240047156047,                       !- March Surface Ground Temperature {C}
  3.08567940719286,                       !- April Surface Ground Temperature {C}
  6.91256312497526,                       !- May Surface Ground Temperature {C}
  10.7216195949507,                       !- June Surface Ground Temperature {C}
  14.0238679822574,                       !- July Surface Ground Temperature {C}
  16.1157611184724,                       !- August Surface Ground Temperature {C}
  16.2934789303462,                       !- September Surface Ground Temperature {C}
  14.5920754632847,                       !- October Surface Ground Temperature {C}
  11.374036348653,                        !- November Surface Ground Temperature {C}
  7.68182621661674;                       !- December Surface Ground Temperature {C}

OS:ThermalZone,
  {a45d8a13-ed74-43d2-88b7-5bdddc5492c2}, !- Handle
  conditioned space,                      !- Name
  1,                                      !- Multiplier
  ,                                       !- Ceiling Height {m}
  692.06373070848,                        !- Volume {m3}
  ,                                       !- Floor Area {m2}
  ,                                       !- Zone Inside Convection Algorithm
  ,                                       !- Zone Outside Convection Algorithm
  ,                                       !- Zone Conditioning Equipment List Name
  {15226f7d-27ca-49b2-a26d-5ba728a6d0cf}, !- Zone Air Inlet Port List
  {b5a10b76-5e00-4115-aed3-e8f5faaf52f5}, !- Zone Air Exhaust Port List
  {b8f6cfc4-fd08-4fdc-8e74-19644a671f1d}, !- Zone Air Node Name
  {0801dfb6-bdc3-4bb8-a8e0-e56ca6363f3a}, !- Zone Return Air Port List
  ,                                       !- Primary Daylighting Control Name
  ,                                       !- Fraction of Zone Controlled by Primary Daylighting Control
  ,                                       !- Secondary Daylighting Control Name
  ,                                       !- Fraction of Zone Controlled by Secondary Daylighting Control
  ,                                       !- Illuminance Map Name
  ,                                       !- Group Rendering Name
  {15c22278-0d41-42e8-8b99-f72ad681e176}, !- Thermostat Name
  No;                                     !- Use Ideal Air Loads

OS:Node,
  {d12eee5d-4793-48dc-9281-4f4ccb2a067b}, !- Handle
  Node 1,                                 !- Name
  {b8f6cfc4-fd08-4fdc-8e74-19644a671f1d}, !- Inlet Port
  ;                                       !- Outlet Port

OS:Connection,
  {b8f6cfc4-fd08-4fdc-8e74-19644a671f1d}, !- Handle
  {a45d8a13-ed74-43d2-88b7-5bdddc5492c2}, !- Source Object
  11,                                     !- Outlet Port
  {d12eee5d-4793-48dc-9281-4f4ccb2a067b}, !- Target Object
  2;                                      !- Inlet Port

OS:PortList,
  {15226f7d-27ca-49b2-a26d-5ba728a6d0cf}, !- Handle
  {a45d8a13-ed74-43d2-88b7-5bdddc5492c2}, !- HVAC Component
  {2648e054-e52d-4cf1-b3c3-c5da13925063}, !- Port 1
  {9a008741-0a92-48ca-bba2-ccbbc2a19da0}; !- Port 2

OS:PortList,
  {b5a10b76-5e00-4115-aed3-e8f5faaf52f5}, !- Handle
  {a45d8a13-ed74-43d2-88b7-5bdddc5492c2}; !- HVAC Component

OS:PortList,
  {0801dfb6-bdc3-4bb8-a8e0-e56ca6363f3a}, !- Handle
  {a45d8a13-ed74-43d2-88b7-5bdddc5492c2}, !- HVAC Component
  {a81ed3c7-5919-4734-b146-08526d85b247}, !- Port 1
  {2f2dca77-fd6b-4be8-a3bd-d1001061c438}; !- Port 2

OS:Sizing:Zone,
  {8492f220-01c4-46ed-be63-fa2847d6d716}, !- Handle
  {a45d8a13-ed74-43d2-88b7-5bdddc5492c2}, !- Zone or ZoneList Name
  SupplyAirTemperature,                   !- Zone Cooling Design Supply Air Temperature Input Method
  14,                                     !- Zone Cooling Design Supply Air Temperature {C}
  11.11,                                  !- Zone Cooling Design Supply Air Temperature Difference {deltaC}
  SupplyAirTemperature,                   !- Zone Heating Design Supply Air Temperature Input Method
  40,                                     !- Zone Heating Design Supply Air Temperature {C}
  11.11,                                  !- Zone Heating Design Supply Air Temperature Difference {deltaC}
  0.0085,                                 !- Zone Cooling Design Supply Air Humidity Ratio {kg-H2O/kg-air}
  0.008,                                  !- Zone Heating Design Supply Air Humidity Ratio {kg-H2O/kg-air}
  ,                                       !- Zone Heating Sizing Factor
  ,                                       !- Zone Cooling Sizing Factor
  DesignDay,                              !- Cooling Design Air Flow Method
  ,                                       !- Cooling Design Air Flow Rate {m3/s}
  ,                                       !- Cooling Minimum Air Flow per Zone Floor Area {m3/s-m2}
  ,                                       !- Cooling Minimum Air Flow {m3/s}
  ,                                       !- Cooling Minimum Air Flow Fraction
  DesignDay,                              !- Heating Design Air Flow Method
  ,                                       !- Heating Design Air Flow Rate {m3/s}
  ,                                       !- Heating Maximum Air Flow per Zone Floor Area {m3/s-m2}
  ,                                       !- Heating Maximum Air Flow {m3/s}
  ,                                       !- Heating Maximum Air Flow Fraction
  No,                                     !- Account for Dedicated Outdoor Air System
  NeutralSupplyAir,                       !- Dedicated Outdoor Air System Control Strategy
  autosize,                               !- Dedicated Outdoor Air Low Setpoint Temperature for Design {C}
  autosize,                               !- Dedicated Outdoor Air High Setpoint Temperature for Design {C}
  Sensible Load Only No Latent Load,      !- Zone Load Sizing Method
  HumidityRatioDifference,                !- Zone Latent Cooling Design Supply Air Humidity Ratio Input Method
  ,                                       !- Zone Dehumidification Design Supply Air Humidity Ratio {kgWater/kgDryAir}
  0.005,                                  !- Zone Cooling Design Supply Air Humidity Ratio Difference {kgWater/kgDryAir}
  HumidityRatioDifference,                !- Zone Latent Heating Design Supply Air Humidity Ratio Input Method
  ,                                       !- Zone Humidification Design Supply Air Humidity Ratio {kgWater/kgDryAir}
  0.005,                                  !- Zone Humidification Design Supply Air Humidity Ratio Difference {kgWater/kgDryAir}
  ,                                       !- Zone Humidistat Dehumidification Set Point Schedule Name
  ,                                       !- Zone Humidistat Humidification Set Point Schedule Name
  ,                                       !- Design Zone Air Distribution Effectiveness in Cooling Mode
  ,                                       !- Design Zone Air Distribution Effectiveness in Heating Mode
  ,                                       !- Design Zone Secondary Recirculation Fraction {dimensionless}
  ,                                       !- Design Minimum Zone Ventilation Efficiency {dimensionless}
  Coincident;                             !- Sizing Option

OS:ZoneHVAC:EquipmentList,
  {52da8d81-cd04-4749-b9a2-3fe637b520f8}, !- Handle
  Zone HVAC Equipment List 1,             !- Name
  {a45d8a13-ed74-43d2-88b7-5bdddc5492c2}, !- Thermal Zone
  ,                                       !- Load Distribution Scheme
  {0a704257-89a6-4db0-98b8-2dee1f18efa5}, !- Zone Equipment 1
  1,                                      !- Zone Equipment Cooling Sequence 1
  1,                                      !- Zone Equipment Heating or No-Load Sequence 1
  {fb044522-ceb2-438e-ae60-f2a6e7ae00b6}, !- Zone Equipment Sequential Cooling Fraction Schedule Name 1
  {489f9364-ced4-44aa-acb3-2c7a63aa2e8b}, !- Zone Equipment Sequential Heating Fraction Schedule Name 1
  {d35724fe-6496-41d9-b4d7-b97ee30ad763}, !- Zone Equipment 2
  2,                                      !- Zone Equipment Cooling Sequence 2
  2,                                      !- Zone Equipment Heating or No-Load Sequence 2
  {72ca41f0-0473-459a-9ff3-d76d173b579e}, !- Zone Equipment Sequential Cooling Fraction Schedule Name 2
  {8f1665c6-1d5e-4f89-b02e-45619069144c}; !- Zone Equipment Sequential Heating Fraction Schedule Name 2

OS:AdditionalProperties,
  {e23be96e-e3be-4ab1-bd12-ef24fb50b364}, !- Handle
  {a45d8a13-ed74-43d2-88b7-5bdddc5492c2}, !- Object Name
  ObjectType,                             !- Feature Name 1
  String,                                 !- Feature Data Type 1
  conditioned space;                      !- Feature Value 1

OS:Space,
  {2450da93-2860-4de5-a7c2-3193b067dd32}, !- Handle
  conditioned space 1,                    !- Name
  ,                                       !- Space Type Name
  ,                                       !- Default Construction Set Name
  ,                                       !- Default Schedule Set Name
  ,                                       !- Direction of Relative North {deg}
  ,                                       !- X Origin {m}
  ,                                       !- Y Origin {m}
  ,                                       !- Z Origin {m}
  ,                                       !- Building Story Name
  {a45d8a13-ed74-43d2-88b7-5bdddc5492c2}, !- Thermal Zone Name
  ,                                       !- Part of Total Floor Area
  ,                                       !- Design Specification Outdoor Air Object Name
  ,                                       !- Building Unit Name
  692.06373070848;                        !- Volume {m3}

OS:Schedule:Ruleset,
  {aafe8a9f-b573-4394-955d-b3210cf0420a}, !- Handle
  heating setpoint,                       !- Name
  {c0f06467-3d8a-435f-8ea8-a7d24f88bba7}, !- Schedule Type Limits Name
  {2261dde0-6dbd-4c3e-834b-b5d905a0cc57}; !- Default Day Schedule Name

OS:Schedule:Day,
  {2261dde0-6dbd-4c3e-834b-b5d905a0cc57}, !- Handle
  heating setpoint default day,           !- Name
  {c0f06467-3d8a-435f-8ea8-a7d24f88bba7}, !- Schedule Type Limits Name
  ,                                       !- Interpolate to Timestep
  24,                                     !- Hour 1
  0,                                      !- Minute 1
  0;                                      !- Value Until Time 1

OS:Schedule:Rule,
  {12fa59aa-8ecf-4b12-818a-e849e501191b}, !- Handle
  heating setpoint allday rule,           !- Name
  {aafe8a9f-b573-4394-955d-b3210cf0420a}, !- Schedule Ruleset Name
  0,                                      !- Rule Order
  {cbfbfb69-03f9-4996-b32d-28d5dc86dd3e}, !- Day Schedule Name
  Yes,                                    !- Apply Sunday
  Yes,                                    !- Apply Monday
  Yes,                                    !- Apply Tuesday
  Yes,                                    !- Apply Wednesday
  Yes,                                    !- Apply Thursday
  Yes,                                    !- Apply Friday
  Yes,                                    !- Apply Saturday
  DateRange,                              !- Date Specification Type
  1,                                      !- Start Month
  1,                                      !- Start Day
  12,                                     !- End Month
  31;                                     !- End Day

OS:Schedule:Day,
  {cbfbfb69-03f9-4996-b32d-28d5dc86dd3e}, !- Handle
  heating setpoint day,                   !- Name
  {c0f06467-3d8a-435f-8ea8-a7d24f88bba7}, !- Schedule Type Limits Name
  ,                                       !- Interpolate to Timestep
  24,                                     !- Hour 1
  0,                                      !- Minute 1
  20;                                     !- Value Until Time 1

OS:Schedule:Ruleset,
  {be914b3a-cdfe-4072-8c34-2716768da8f8}, !- Handle
  cooling setpoint,                       !- Name
  {c0f06467-3d8a-435f-8ea8-a7d24f88bba7}, !- Schedule Type Limits Name
  {76431540-53f0-44a5-a886-60502e365b62}; !- Default Day Schedule Name

OS:Schedule:Day,
  {76431540-53f0-44a5-a886-60502e365b62}, !- Handle
  cooling setpoint default day,           !- Name
  {c0f06467-3d8a-435f-8ea8-a7d24f88bba7}, !- Schedule Type Limits Name
  ,                                       !- Interpolate to Timestep
  24,                                     !- Hour 1
  0,                                      !- Minute 1
  0;                                      !- Value Until Time 1

OS:Schedule:Rule,
  {61e9cb64-d666-4ea6-be45-e459b077985d}, !- Handle
  cooling setpoint allday rule,           !- Name
  {be914b3a-cdfe-4072-8c34-2716768da8f8}, !- Schedule Ruleset Name
  0,                                      !- Rule Order
  {969084c8-3488-450e-b22e-80d12c3da255}, !- Day Schedule Name
  Yes,                                    !- Apply Sunday
  Yes,                                    !- Apply Monday
  Yes,                                    !- Apply Tuesday
  Yes,                                    !- Apply Wednesday
  Yes,                                    !- Apply Thursday
  Yes,                                    !- Apply Friday
  Yes,                                    !- Apply Saturday
  DateRange,                              !- Date Specification Type
  1,                                      !- Start Month
  1,                                      !- Start Day
  12,                                     !- End Month
  31;                                     !- End Day

OS:Schedule:Day,
  {969084c8-3488-450e-b22e-80d12c3da255}, !- Handle
  cooling setpoint day,                   !- Name
  {c0f06467-3d8a-435f-8ea8-a7d24f88bba7}, !- Schedule Type Limits Name
  ,                                       !- Interpolate to Timestep
  24,                                     !- Hour 1
  0,                                      !- Minute 1
  25.5555555555556;                       !- Value Until Time 1

OS:ThermostatSetpoint:DualSetpoint,
  {15c22278-0d41-42e8-8b99-f72ad681e176}, !- Handle
  conditioned space temperature setpoint, !- Name
  {aafe8a9f-b573-4394-955d-b3210cf0420a}, !- Heating Setpoint Temperature Schedule Name
  {be914b3a-cdfe-4072-8c34-2716768da8f8}, !- Cooling Setpoint Temperature Schedule Name
  0;                                      !- Temperature Difference Between Cutout And Setpoint {deltaC}

OS:ScheduleTypeLimits,
  {c0f06467-3d8a-435f-8ea8-a7d24f88bba7}, !- Handle
  Temperature,                            !- Name
  ,                                       !- Lower Limit Value
  ,                                       !- Upper Limit Value
  Continuous,                             !- Numeric Type
  Temperature;                            !- Unit Type

OS:Surface,
  {06f3c4af-29cd-4b2e-89d3-0f59dd0b4506}, !- Handle
  Roof1,                                  !- Name
  RoofCeiling,                            !- Surface Type
  {bd89b0b2-2f2c-4ad7-9af4-673cbcd06055}, !- Construction Name
  {60929571-0bf8-4acf-8d94-5652152c7365}, !- Space Name
  Outdoors,                               !- Outside Boundary Condition
  ,                                       !- Outside Boundary Condition Object
  SunExposed,                             !- Sun Exposure
  WindExposed,                            !- Wind Exposure
  ,                                       !- View Factor to Ground
  ,                                       !- Number of Vertices
  -26.9347048849634, 58.0557891618865, 2.4384, !- X,Y,Z Vertex 1 {m}
  -26.9347048849634, 46.7895631136661, 8.0715130241102, !- X,Y,Z Vertex 2 {m}
  -14.3386812381136, 46.7895631136661, 8.0715130241102, !- X,Y,Z Vertex 3 {m}
  -14.3386812381136, 58.0557891618865, 2.4384; !- X,Y,Z Vertex 4 {m}

OS:AdditionalProperties,
  {cd3f9ac1-ae86-46e9-aee0-700ef63e13ac}, !- Handle
  {06f3c4af-29cd-4b2e-89d3-0f59dd0b4506}, !- Object Name
  Length,                                 !- Feature Name 1
  Double,                                 !- Feature Data Type 1
  41.325536899113608,                     !- Feature Value 1
  Width,                                  !- Feature Name 2
  Double,                                 !- Feature Data Type 2
  41.325536899113601,                     !- Feature Value 2
  Azimuth,                                !- Feature Name 3
  Integer,                                !- Feature Data Type 3
  0,                                      !- Feature Value 3
  Tilt,                                   !- Feature Name 4
  Double,                                 !- Feature Data Type 4
  0.5,                                    !- Feature Value 4
  SurfaceType,                            !- Feature Name 5
  String,                                 !- Feature Data Type 5
  Roof;                                   !- Feature Value 5

OS:ThermalZone,
  {c77fb166-4ee3-418c-bc4d-c3b90a81c0d1}, !- Handle
  attic - vented,                         !- Name
  1,                                      !- Multiplier
  ,                                       !- Ceiling Height {m}
  356.389957095237,                       !- Volume {m3}
  ,                                       !- Floor Area {m2}
  ,                                       !- Zone Inside Convection Algorithm
  ,                                       !- Zone Outside Convection Algorithm
  ,                                       !- Zone Conditioning Equipment List Name
  {1978a444-2287-4c65-9257-efb65f74b7e2}, !- Zone Air Inlet Port List
  {0b934fea-d6e4-4666-8e81-503e00ed4330}, !- Zone Air Exhaust Port List
  {e75af62b-83ea-421f-b06a-38b3cec10fc6}, !- Zone Air Node Name
  {e6fe1f75-d794-4db9-bb68-6e0c51ac486c}, !- Zone Return Air Port List
  ,                                       !- Primary Daylighting Control Name
  ,                                       !- Fraction of Zone Controlled by Primary Daylighting Control
  ,                                       !- Secondary Daylighting Control Name
  ,                                       !- Fraction of Zone Controlled by Secondary Daylighting Control
  ,                                       !- Illuminance Map Name
  ,                                       !- Group Rendering Name
  ,                                       !- Thermostat Name
  No;                                     !- Use Ideal Air Loads

OS:Node,
  {58a117d6-69f6-412a-a1be-a53256c15924}, !- Handle
  Node 2,                                 !- Name
  {e75af62b-83ea-421f-b06a-38b3cec10fc6}, !- Inlet Port
  ;                                       !- Outlet Port

OS:Connection,
  {e75af62b-83ea-421f-b06a-38b3cec10fc6}, !- Handle
  {c77fb166-4ee3-418c-bc4d-c3b90a81c0d1}, !- Source Object
  11,                                     !- Outlet Port
  {58a117d6-69f6-412a-a1be-a53256c15924}, !- Target Object
  2;                                      !- Inlet Port

OS:PortList,
  {1978a444-2287-4c65-9257-efb65f74b7e2}, !- Handle
  {c77fb166-4ee3-418c-bc4d-c3b90a81c0d1}; !- HVAC Component

OS:PortList,
  {0b934fea-d6e4-4666-8e81-503e00ed4330}, !- Handle
  {c77fb166-4ee3-418c-bc4d-c3b90a81c0d1}; !- HVAC Component

OS:PortList,
  {e6fe1f75-d794-4db9-bb68-6e0c51ac486c}, !- Handle
  {c77fb166-4ee3-418c-bc4d-c3b90a81c0d1}; !- HVAC Component

OS:Sizing:Zone,
  {57945863-356c-4fce-9630-170602d5669b}, !- Handle
  {c77fb166-4ee3-418c-bc4d-c3b90a81c0d1}, !- Zone or ZoneList Name
  SupplyAirTemperature,                   !- Zone Cooling Design Supply Air Temperature Input Method
  14,                                     !- Zone Cooling Design Supply Air Temperature {C}
  11.11,                                  !- Zone Cooling Design Supply Air Temperature Difference {deltaC}
  SupplyAirTemperature,                   !- Zone Heating Design Supply Air Temperature Input Method
  40,                                     !- Zone Heating Design Supply Air Temperature {C}
  11.11,                                  !- Zone Heating Design Supply Air Temperature Difference {deltaC}
  0.0085,                                 !- Zone Cooling Design Supply Air Humidity Ratio {kg-H2O/kg-air}
  0.008,                                  !- Zone Heating Design Supply Air Humidity Ratio {kg-H2O/kg-air}
  ,                                       !- Zone Heating Sizing Factor
  ,                                       !- Zone Cooling Sizing Factor
  DesignDay,                              !- Cooling Design Air Flow Method
  ,                                       !- Cooling Design Air Flow Rate {m3/s}
  ,                                       !- Cooling Minimum Air Flow per Zone Floor Area {m3/s-m2}
  ,                                       !- Cooling Minimum Air Flow {m3/s}
  ,                                       !- Cooling Minimum Air Flow Fraction
  DesignDay,                              !- Heating Design Air Flow Method
  ,                                       !- Heating Design Air Flow Rate {m3/s}
  ,                                       !- Heating Maximum Air Flow per Zone Floor Area {m3/s-m2}
  ,                                       !- Heating Maximum Air Flow {m3/s}
  ,                                       !- Heating Maximum Air Flow Fraction
  No,                                     !- Account for Dedicated Outdoor Air System
  NeutralSupplyAir,                       !- Dedicated Outdoor Air System Control Strategy
  autosize,                               !- Dedicated Outdoor Air Low Setpoint Temperature for Design {C}
  autosize,                               !- Dedicated Outdoor Air High Setpoint Temperature for Design {C}
  Sensible Load Only No Latent Load,      !- Zone Load Sizing Method
  HumidityRatioDifference,                !- Zone Latent Cooling Design Supply Air Humidity Ratio Input Method
  ,                                       !- Zone Dehumidification Design Supply Air Humidity Ratio {kgWater/kgDryAir}
  0.005,                                  !- Zone Cooling Design Supply Air Humidity Ratio Difference {kgWater/kgDryAir}
  HumidityRatioDifference,                !- Zone Latent Heating Design Supply Air Humidity Ratio Input Method
  ,                                       !- Zone Humidification Design Supply Air Humidity Ratio {kgWater/kgDryAir}
  0.005,                                  !- Zone Humidification Design Supply Air Humidity Ratio Difference {kgWater/kgDryAir}
  ,                                       !- Zone Humidistat Dehumidification Set Point Schedule Name
  ,                                       !- Zone Humidistat Humidification Set Point Schedule Name
  ,                                       !- Design Zone Air Distribution Effectiveness in Cooling Mode
  ,                                       !- Design Zone Air Distribution Effectiveness in Heating Mode
  ,                                       !- Design Zone Secondary Recirculation Fraction {dimensionless}
  ,                                       !- Design Minimum Zone Ventilation Efficiency {dimensionless}
  Coincident;                             !- Sizing Option

OS:ZoneHVAC:EquipmentList,
  {cffe29fd-1e97-47c4-a9d1-4b6b95a4037c}, !- Handle
  Zone HVAC Equipment List 2,             !- Name
  {c77fb166-4ee3-418c-bc4d-c3b90a81c0d1}; !- Thermal Zone

OS:AdditionalProperties,
  {a3839502-0928-46dd-8ecb-592eeca5283b}, !- Handle
  {c77fb166-4ee3-418c-bc4d-c3b90a81c0d1}, !- Object Name
  ObjectType,                             !- Feature Name 1
  String,                                 !- Feature Data Type 1
  attic - vented;                         !- Feature Value 1

OS:Space,
  {60929571-0bf8-4acf-8d94-5652152c7365}, !- Handle
  attic - vented 1,                       !- Name
  ,                                       !- Space Type Name
  ,                                       !- Default Construction Set Name
  ,                                       !- Default Schedule Set Name
  ,                                       !- Direction of Relative North {deg}
  ,                                       !- X Origin {m}
  ,                                       !- Y Origin {m}
  ,                                       !- Z Origin {m}
  ,                                       !- Building Story Name
  {c77fb166-4ee3-418c-bc4d-c3b90a81c0d1}, !- Thermal Zone Name
  ,                                       !- Part of Total Floor Area
  ,                                       !- Design Specification Outdoor Air Object Name
  ,                                       !- Building Unit Name
  356.389957095237;                       !- Volume {m3}

OS:Material,