
OS:Version,
  {879c96e2-12b7-4bc1-8fbb-6fde3fbb0019}, !- Handle
  3.10.0;                                 !- Version Identifier

OS:SimulationControl,
  {50bace12-07ca-40dd-8a67-cd77f8871c03}, !- Handle
  ,                                       !- Do Zone Sizing Calculation
  ,                                       !- Do System Sizing Calculation
  ,                                       !- Do Plant Sizing Calculation
  No;                                     !- Run Simulation for Sizing Periods

OS:Timestep,
  {dcede894-4763-4526-8fa3-c6d7271a64be}, !- Handle
  1;                                      !- Number of Timesteps per Hour

OS:ShadowCalculation,
  {5107ba32-36b2-4f2b-8591-20738ae117ca}, !- Handle
  PolygonClipping,                        !- Shading Calculation Method
  ,                                       !- Shading Calculation Update Frequency Method
  20,                                     !- Shading Calculation Update Frequency
  200,                                    !- Maximum Figures in Shadow Overlap Calculations
  ,                                       !- Polygon Clipping Algorithm
  512,                                    !- Pixel Counting Resolution
  ,                                       !- Sky Diffuse Modeling Algorithm
  No,                                     !- Output External Shading Calculation Results
  No,                                     !- Disable Self-Shading Within Shading Zone Groups
  No;                                     !- Disable Self-Shading From Shading Zone Groups to Other Zones

OS:SurfaceConvectionAlgorithm:Outside,
  {de807d1e-f854-4eec-b26d-b07e3c4c54a4}, !- Handle
  DOE-2;                                  !- Algorithm

OS:SurfaceConvectionAlgorithm:Inside,
  {2e1c7537-e82f-4c21-826d-7977c3b3b087}, !- Handle
  TARP;                                   !- Algorithm

OS:ZoneCapacitanceMultiplier:ResearchSpecial,
  {9940d075-fef3-4d7c-97fa-e28ebba17bac}, !- Handle
  7,                                      !- Temperature Capacity Multiplier
  15,                                     !- Humidity Capacity Multiplier
  ;                                       !- Carbon Dioxide Capacity Multiplier

OS:ConvergenceLimits,
  {805dbc6c-52ce-4461-b82b-f1992531b4b9}, !- Handle
  0;                                      !- Minimum System Timestep {minutes}

OS:RunPeriod,
  {1d78e13d-80a4-4172-b844-24c2c3fb3e91}, !- Handle
  Run Period 1,                           !- Name
  1,                                      !- Begin Month
  1,                                      !- Begin Day of Month
  12,                                     !- End Month
  31,                                     !- End Day of Month
  ,                                       !- Use Weather File Holidays and Special Days
  ,                                       !- Use Weather File Daylight Saving Period
  ,                                       !- Apply Weekend Holiday Rule
  ,                                       !- Use Weather File Rain Indicators
  ,                                       !- Use Weather File Snow Indicators
  ;                                       !- Number of Times Runperiod to be Repeated

OS:PerformancePrecisionTradeoffs,
  {1c5cc345-40b9-444d-b87d-e6c8e94f34a7}, !- Handle
  ,                                       !- Use Coil Direct Solutions
  CarrollMRT;                             !- Zone Radiant Exchange Algorithm

OS:WeatherFile,
  {e55937c6-1e2d-4a91-8b26-8589a49323c9}, !- Handle
  Buffalo Niagara Intl Ap,                !- City
  NY,                                     !- State Province Region
  USA,                                    !- Country
  TMY3,                                   !- Data Source
  725280,                                 !- WMO Number
  42.93,                                  !- Latitude {deg}
  -78.73,                                 !- Longitude {deg}
  -5,                                     !- Time Zone {hr}
  215,                                    !- Elevation {m}
  /Users/nmoore/github/urbanopt-example-geojson-project/example_project/weather/USA_NY_Buffalo-Greater.Buffalo.Intl.AP.725280_TMY3.epw, !- Url
  6B50E0FF,                               !- Checksum
  ,                                       !- Start Date Actual Year
  Sunday;                                 !- Start Day of Week

OS:YearDescription,
  {f8b6c223-d475-4ecd-9a87-29b0f3716787}, !- Handle
  2007,                                   !- Calendar Year
  ,                                       !- Day of Week for Start Day
  ;                                       !- Is Leap Year

OS:Site,
  {3d228721-7b57-4ac9-90d9-79eb6bf5875f}, !- Handle
  Buffalo Niagara Intl Ap_NY,             !- Name
  42.93,                                  !- Latitude {deg}
  -78.73,                                 !- Longitude {deg}
  -5,                                     !- Time Zone {hr}
  215,                                    !- Elevation {m}
  Suburbs,                                !- Terrain
  Yes;                                    !- Keep Site Location Information

OS:RunPeriodControl:DaylightSavingTime,
  {6d638e19-5738-446a-a5ab-d1f24733264d}, !- Handle
  Mar 12,                                 !- Start Date
  Nov 5;                                  !- End Date

OS:Site:GroundTemperature:Shallow,
  {0d09eaee-02ad-4296-b83f-21442f95f78b}, !- Handle
  4.30207395723828,                       !- January Surface Ground Temperature {C}
  2.29327249652502,                       !- February Surface Ground Temperature {C}
  2.13240047156047,                       !- March Surface Ground Temperature {C}
  3.08567940719286,                       !- April Surface Ground Temperature {C}
  6.91256312497526,                       !- May Surface Ground Temperature {C}
  10.7216195949507,                       !- June Surface Ground Temperature {C}
  14.0238679822574,                       !- July Surface Ground Temperature {C}
  16.1157611184724,                       !- August Surface Ground Temperature {C}
  16.2934789303462,                       !- September Surface Ground Temperature {C}
  14.5920754632847,                       !- October Surface Ground Temperature {C}
  11.374036348653,                        !- November Surface Ground Temperature {C}
  7.68182621661674;                       !- December Surface Ground Temperature {C}

OS:ThermalZone,
  {908d2c96-d2a7-4c7a-9157-f0a1a5d71a2f}, !- Handle
  conditioned space,                      !- Name
  1,                                      !- Multiplier
  ,                                       !- Ceiling Height {m}
  692.06373070848,                        !- Volume {m3}
  ,                                       !- Floor Area {m2}
  ,                                       !- Zone Inside Convection Algorithm
  ,                                       !- Zone Outside Convection Algorithm
  ,                                       !- Zone Conditioning Equipment List Name
  {4fb20b9e-7ff1-42bf-a06c-414acea217da}, !- Zone Air Inlet Port List
  {daaba0f1-ad44-469d-bb43-ef1d2f1bc675}, !- Zone Air Exhaust Port List
  {1a47f429-8b29-4458-9352-134ebf676fc3}, !- Zone Air Node Name
  {e4a01415-1274-4c76-a9a1-5df64a1df08f}, !- Zone Return Air Port List
  ,                                       !- Primary Daylighting Control Name
  ,                                       !- Fraction of Zone Controlled by Primary Daylighting Control
  ,                                       !- Secondary Daylighting Control Name
  ,                                       !- Fraction of Zone Controlled by Secondary Daylighting Control
  ,                                       !- Illuminance Map Name
  ,                                       !- Group Rendering Name
  {95c9a6f2-572d-4dce-ad66-58a40f6a6a7d}, !- Thermostat Name
  No;                                     !- Use Ideal Air Loads

OS:Node,
  {481a4c1e-88c7-429f-bac0-21309c08346d}, !- Handle
  Node 1,                                 !- Name
  {1a47f429-8b29-4458-9352-134ebf676fc3}, !- Inlet Port
  ;                                       !- Outlet Port

OS:Connection,
  {1a47f429-8b29-4458-9352-134ebf676fc3}, !- Handle
  {908d2c96-d2a7-4c7a-9157-f0a1a5d71a2f}, !- Source Object
  11,                                     !- Outlet Port
  {481a4c1e-88c7-429f-bac0-21309c08346d}, !- Target Object
  2;                                      !- Inlet Port

OS:PortList,
  {4fb20b9e-7ff1-42bf-a06c-414acea217da}, !- Handle
  {908d2c96-d2a7-4c7a-9157-f0a1a5d71a2f}, !- HVAC Component
  {a8eb9c0e-7862-4408-9409-e6a6c3801baf}, !- Port 1
  {e41b8164-ce10-44c3-aa3e-7ff71f9fae83}; !- Port 2

OS:PortList,
  {daaba0f1-ad44-469d-bb43-ef1d2f1bc675}, !- Handle
  {908d2c96-d2a7-4c7a-9157-f0a1a5d71a2f}; !- HVAC Component

OS:PortList,
  {e4a01415-1274-4c76-a9a1-5df64a1df08f}, !- Handle
  {908d2c96-d2a7-4c7a-9157-f0a1a5d71a2f}, !- HVAC Component
  {d50de2c1-76e5-4cc0-81ae-dcff11551b77}, !- Port 1
  {5cc415e9-f947-4155-ac2a-960de5d4cf5e}; !- Port 2

OS:Sizing:Zone,
  {fbfbcd25-b069-4af1-96c8-e6d6ab876c6f}, !- Handle
  {908d2c96-d2a7-4c7a-9157-f0a1a5d71a2f}, !- Zone or ZoneList Name
  SupplyAirTemperature,                   !- Zone Cooling Design Supply Air Temperature Input Method
  14,                                     !- Zone Cooling Design Supply Air Temperature {C}
  11.11,                                  !- Zone Cooling Design Supply Air Temperature Difference {deltaC}
  SupplyAirTemperature,                   !- Zone Heating Design Supply Air Temperature Input Method
  40,                                     !- Zone Heating Design Supply Air Temperature {C}
  11.11,                                  !- Zone Heating Design Supply Air Temperature Difference {deltaC}
  0.0085,                                 !- Zone Cooling Design Supply Air Humidity Ratio {kg-H2O/kg-air}
  0.008,                                  !- Zone Heating Design Supply Air Humidity Ratio {kg-H2O/kg-air}
  ,                                       !- Zone Heating Sizing Factor
  ,                                       !- Zone Cooling Sizing Factor
  DesignDay,                              !- Cooling Design Air Flow Method
  ,                                       !- Cooling Design Air Flow Rate {m3/s}
  ,                                       !- Cooling Minimum Air Flow per Zone Floor Area {m3/s-m2}
  ,                                       !- Cooling Minimum Air Flow {m3/s}
  ,                                       !- Cooling Minimum Air Flow Fraction
  DesignDay,                              !- Heating Design Air Flow Method
  ,                                       !- Heating Design Air Flow Rate {m3/s}
  ,                                       !- Heating Maximum Air Flow per Zone Floor Area {m3/s-m2}
  ,                                       !- Heating Maximum Air Flow {m3/s}
  ,                                       !- Heating Maximum Air Flow Fraction
  No,                                     !- Account for Dedicated Outdoor Air System
  NeutralSupplyAir,                       !- Dedicated Outdoor Air System Control Strategy
  autosize,                               !- Dedicated Outdoor Air Low Setpoint Temperature for Design {C}
  autosize,                               !- Dedicated Outdoor Air High Setpoint Temperature for Design {C}
  Sensible Load Only No Latent Load,      !- Zone Load Sizing Method
  HumidityRatioDifference,                !- Zone Latent Cooling Design Supply Air Humidity Ratio Input Method
  ,                                       !- Zone Dehumidification Design Supply Air Humidity Ratio {kgWater/kgDryAir}
  0.005,                                  !- Zone Cooling Design Supply Air Humidity Ratio Difference {kgWater/kgDryAir}
  HumidityRatioDifference,                !- Zone Latent Heating Design Supply Air Humidity Ratio Input Method
  ,                                       !- Zone Humidification Design Supply Air Humidity Ratio {kgWater/kgDryAir}
  0.005,                                  !- Zone Humidification Design Supply Air Humidity Ratio Difference {kgWater/kgDryAir}
  ,                                       !- Zone Humidistat Dehumidification Set Point Schedule Name
  ,                                       !- Zone Humidistat Humidification Set Point Schedule Name
  ,                                       !- Design Zone Air Distribution Effectiveness in Cooling Mode
  ,                                       !- Design Zone Air Distribution Effectiveness in Heating Mode
  ,                                       !- Design Zone Secondary Recirculation Fraction {dimensionless}
  ,                                       !- Design Minimum Zone Ventilation Efficiency {dimensionless}
  Coincident;                             !- Sizing Option

OS:ZoneHVAC:EquipmentList,
  {78b0e73d-cd11-45cc-97d6-845340b3928e}, !- Handle
  Zone HVAC Equipment List 1,             !- Name
  {908d2c96-d2a7-4c7a-9157-f0a1a5d71a2f}, !- Thermal Zone
  ,                                       !- Load Distribution Scheme
  {12f2d9bc-a4e0-443c-ab07-e7f369a62fce}, !- Zone Equipment 1
  1,                                      !- Zone Equipment Cooling Sequence 1
  1,                                      !- Zone Equipment Heating or No-Load Sequence 1
  {214c0634-7912-47d8-89f9-da051b95f209}, !- Zone Equipment Sequential Cooling Fraction Schedule Name 1
  {43c84e27-ff86-4dd2-bcce-910f6d6fbbda}, !- Zone Equipment Sequential Heating Fraction Schedule Name 1
  {ad4df7d9-354a-49bd-98ad-faaf1675fc4c}, !- Zone Equipment 2
  2,                                      !- Zone Equipment Cooling Sequence 2
  2,                                      !- Zone Equipment Heating or No-Load Sequence 2
  {387e5773-f143-4f98-9b52-4b7922fc1293}, !- Zone Equipment Sequential Cooling Fraction Schedule Name 2
  {1f6a89f1-ff65-48a6-a233-2c18139e86aa}; !- Zone Equipment Sequential Heating Fraction Schedule Name 2

OS:AdditionalProperties,
  {75565af5-d061-48c5-b5e5-1274f61d60ad}, !- Handle
  {908d2c96-d2a7-4c7a-9157-f0a1a5d71a2f}, !- Object Name
  ObjectType,                             !- Feature Name 1
  String,                                 !- Feature Data Type 1
  conditioned space;                      !- Feature Value 1

OS:Space,
  {27c097ff-84b9-4ddf-9265-2ef074ba46f0}, !- Handle
  conditioned space 1,                    !- Name
  ,                                       !- Space Type Name
  ,                                       !- Default Construction Set Name
  ,                                       !- Default Schedule Set Name
  ,                                       !- Direction of Relative North {deg}
  ,                                       !- X Origin {m}
  ,                                       !- Y Origin {m}
  ,                                       !- Z Origin {m}
  ,                                       !- Building Story Name
  {908d2c96-d2a7-4c7a-9157-f0a1a5d71a2f}, !- Thermal Zone Name
  ,                                       !- Part of Total Floor Area
  ,                                       !- Design Specification Outdoor Air Object Name
  ,                                       !- Building Unit Name
  692.06373070848;                        !- Volume {m3}

OS:Schedule:Ruleset,
  {2c61dada-43f0-4325-963b-d9c360811cd0}, !- Handle
  heating setpoint,                       !- Name
  {5246fed3-1f10-49a3-bb87-840f9cb0dfb6}, !- Schedule Type Limits Name
  {7889254f-57c1-47f1-985a-3c593b5c8ab8}; !- Default Day Schedule Name

OS:Schedule:Day,
  {7889254f-57c1-47f1-985a-3c593b5c8ab8}, !- Handle
  heating setpoint default day,           !- Name
  {5246fed3-1f10-49a3-bb87-840f9cb0dfb6}, !- Schedule Type Limits Name
  ,                                       !- Interpolate to Timestep
  24,                                     !- Hour 1
  0,                                      !- Minute 1
  0;                                      !- Value Until Time 1

OS:Schedule:Rule,
  {b1869412-092e-4ecf-9474-2d8af9b7ca88}, !- Handle
  heating setpoint allday rule,           !- Name
  {2c61dada-43f0-4325-963b-d9c360811cd0}, !- Schedule Ruleset Name
  0,                                      !- Rule Order
  {7e2a4a1c-c132-441e-a54a-073a22291b42}, !- Day Schedule Name
  Yes,                                    !- Apply Sunday
  Yes,                                    !- Apply Monday
  Yes,                                    !- Apply Tuesday
  Yes,                                    !- Apply Wednesday
  Yes,                                    !- Apply Thursday
  Yes,                                    !- Apply Friday
  Yes,                                    !- Apply Saturday
  DateRange,                              !- Date Specification Type
  1,                                      !- Start Month
  1,                                      !- Start Day
  12,                                     !- End Month
  31;                                     !- End Day

OS:Schedule:Day,
  {7e2a4a1c-c132-441e-a54a-073a22291b42}, !- Handle
  heating setpoint day,                   !- Name
  {5246fed3-1f10-49a3-bb87-840f9cb0dfb6}, !- Schedule Type Limits Name
  ,                                       !- Interpolate to Timestep
  24,                                     !- Hour 1
  0,                                      !- Minute 1
  20;                                     !- Value Until Time 1

OS:Schedule:Ruleset,
  {751af72b-fbc8-4659-b297-ec6a18ac57da}, !- Handle
  cooling setpoint,                       !- Name
  {5246fed3-1f10-49a3-bb87-840f9cb0dfb6}, !- Schedule Type Limits Name
  {0700de8d-3b48-4157-bb53-1d31e2089d48}; !- Default Day Schedule Name

OS:Schedule:Day,
  {0700de8d-3b48-4157-bb53-1d31e2089d48}, !- Handle
  cooling setpoint default day,           !- Name
  {5246fed3-1f10-49a3-bb87-840f9cb0dfb6}, !- Schedule Type Limits Name
  ,                                       !- Interpolate to Timestep
  24,                                     !- Hour 1
  0,                                      !- Minute 1
  0;                                      !- Value Until Time 1

OS:Schedule:Rule,
  {b309138a-8238-4cf4-98c6-74f8cac985e0}, !- Handle
  cooling setpoint allday rule,           !- Name
  {751af72b-fbc8-4659-b297-ec6a18ac57da}, !- Schedule Ruleset Name
  0,                                      !- Rule Order
  {809dfa80-dbb7-4a4e-b81b-6179ff0bd969}, !- Day Schedule Name
  Yes,                                    !- Apply Sunday
  Yes,                                    !- Apply Monday
  Yes,                                    !- Apply Tuesday
  Yes,                                    !- Apply Wednesday
  Yes,                                    !- Apply Thursday
  Yes,                                    !- Apply Friday
  Yes,                                    !- Apply Saturday
  DateRange,                              !- Date Specification Type
  1,                                      !- Start Month
  1,                                      !- Start Day
  12,                                     !- End Month
  31;                                     !- End Day

OS:Schedule:Day,
  {809dfa80-dbb7-4a4e-b81b-6179ff0bd969}, !- Handle
  cooling setpoint day,                   !- Name
  {5246fed3-1f10-49a3-bb87-840f9cb0dfb6}, !- Schedule Type Limits Name
  ,                                       !- Interpolate to Timestep
  24,                                     !- Hour 1
  0,                                      !- Minute 1
  25.5555555555556;                       !- Value Until Time 1

OS:ThermostatSetpoint:DualSetpoint,
  {95c9a6f2-572d-4dce-ad66-58a40f6a6a7d}, !- Handle
  conditioned space temperature setpoint, !- Name
  {2c61dada-43f0-4325-963b-d9c360811cd0}, !- Heating Setpoint Temperature Schedule Name
  {751af72b-fbc8-4659-b297-ec6a18ac57da}, !- Cooling Setpoint Temperature Schedule Name
  0;                                      !- Temperature Difference Between Cutout And Setpoint {deltaC}

OS:ScheduleTypeLimits,
  {5246fed3-1f10-49a3-bb87-840f9cb0dfb6}, !- Handle
  Temperature,                            !- Name
  ,                                       !- Lower Limit Value
  ,                                       !- Upper Limit Value
  Continuous,                             !- Numeric Type
  Temperature;                            !- Unit Type

OS:Surface,
  {c15789bc-0dab-428e-9d2d-c15ded02b9ec}, !- Handle
  Roof1,                                  !- Name
  RoofCeiling,                            !- Surface Type
  {1aa059ce-3f99-4a91-aee1-d30104e0a6ad}, !- Construction Name
  {217c3da6-0c5a-402f-b637-1c94a2d7ddb9}, !- Space Name
  Outdoors,                               !- Outside Boundary Condition
  ,                                       !- Outside Boundary Condition Object
  SunExposed,                             !- Sun Exposure
  WindExposed,                            !- Wind Exposure
  ,                                       !- View Factor to Ground
  ,                                       !- Number of Vertices
  -26.9347048849634, 58.0557891618865, 2.4384, !- X,Y,Z Vertex 1 {m}
  -26.9347048849634, 46.7895631136661, 8.0715130241102, !- X,Y,Z Vertex 2 {m}
  -14.3386812381136, 46.7895631136661, 8.0715130241102, !- X,Y,Z Vertex 3 {m}
  -14.3386812381136, 58.0557891618865, 2.4384; !- X,Y,Z Vertex 4 {m}

OS:AdditionalProperties,
  {88b52be4-5b3a-4e48-b5c7-b76eda2a4a38}, !- Handle
  {c15789bc-0dab-428e-9d2d-c15ded02b9ec}, !- Object Name
  Length,                                 !- Feature Name 1
  Double,                                 !- Feature Data Type 1
  41.325536899113608,                     !- Feature Value 1
  Width,                                  !- Feature Name 2
  Double,                                 !- Feature Data Type 2
  41.325536899113601,                     !- Feature Value 2
  Azimuth,                                !- Feature Name 3
  Integer,                                !- Feature Data Type 3
  0,                                      !- Feature Value 3
  Tilt,                                   !- Feature Name 4
  Double,                                 !- Feature Data Type 4
  0.5,                                    !- Feature Value 4
  SurfaceType,                            !- Feature Name 5
  String,                                 !- Feature Data Type 5
  Roof;                                   !- Feature Value 5

OS:ThermalZone,
  {31cb2e33-51ad-4eb0-9104-6ef0d4094a5c}, !- Handle
  attic - vented,                         !- Name
  1,                                      !- Multiplier
  ,                                       !- Ceiling Height {m}
  356.390921899745,                       !- Volume {m3}
  ,                                       !- Floor Area {m2}
  ,                                       !- Zone Inside Convection Algorithm
  ,                                       !- Zone Outside Convection Algorithm
  ,                                       !- Zone Conditioning Equipment List Name
  {e851d42b-958e-4514-8feb-1dcfa933cd0e}, !- Zone Air Inlet Port List
  {e34ead36-9f12-49d9-8eb3-784b122e1f97}, !- Zone Air Exhaust Port List
  {d749fbcc-cf09-401c-af35-8e974338ac66}, !- Zone Air Node Name
  {0e319f5f-7d75-4770-b8b7-89c2f590f84c}, !- Zone Return Air Port List
  ,                                       !- Primary Daylighting Control Name
  ,                                       !- Fraction of Zone Controlled by Primary Daylighting Control
  ,                                       !- Secondary Daylighting Control Name
  ,                                       !- Fraction of Zone Controlled by Secondary Daylighting Control
  ,                                       !- Illuminance Map Name
  ,                                       !- Group Rendering Name
  ,                                       !- Thermostat Name
  No;                                     !- Use Ideal Air Loads

OS:Node,
  {46fcbaf1-8943-480e-b15c-f8b4bb9fc891}, !- Handle
  Node 2,                                 !- Name
  {d749fbcc-cf09-401c-af35-8e974338ac66}, !- Inlet Port
  ;                                       !- Outlet Port

OS:Connection,
  {d749fbcc-cf09-401c-af35-8e974338ac66}, !- Handle
  {31cb2e33-51ad-4eb0-9104-6ef0d4094a5c}, !- Source Object
  11,                                     !- Outlet Port
  {46fcbaf1-8943-480e-b15c-f8b4bb9fc891}, !- Target Object
  2;                                      !- Inlet Port

OS:PortList,
  {e851d42b-958e-4514-8feb-1dcfa933cd0e}, !- Handle
  {31cb2e33-51ad-4eb0-9104-6ef0d4094a5c}; !- HVAC Component

OS:PortList,
  {e34ead36-9f12-49d9-8eb3-784b122e1f97}, !- Handle
  {31cb2e33-51ad-4eb0-9104-6ef0d4094a5c}; !- HVAC Component

OS:PortList,
  {0e319f5f-7d75-4770-b8b7-89c2f590f84c}, !- Handle
  {31cb2e33-51ad-4eb0-9104-6ef0d4094a5c}; !- HVAC Component

OS:Sizing:Zone,
  {990b522f-9429-4572-b869-d99c2e3543a2}, !- Handle
  {31cb2e33-51ad-4eb0-9104-6ef0d4094a5c}, !- Zone or ZoneList Name
  SupplyAirTemperature,                   !- Zone Cooling Design Supply Air Temperature Input Method
  14,                                     !- Zone Cooling Design Supply Air Temperature {C}
  11.11,                                  !- Zone Cooling Design Supply Air Temperature Difference {deltaC}
  SupplyAirTemperature,                   !- Zone Heating Design Supply Air Temperature Input Method
  40,                                     !- Zone Heating Design Supply Air Temperature {C}
  11.11,                                  !- Zone Heating Design Supply Air Temperature Difference {deltaC}
  0.0085,                                 !- Zone Cooling Design Supply Air Humidity Ratio {kg-H2O/kg-air}
  0.008,                                  !- Zone Heating Design Supply Air Humidity Ratio {kg-H2O/kg-air}
  ,                                       !- Zone Heating Sizing Factor
  ,                                       !- Zone Cooling Sizing Factor
  DesignDay,                              !- Cooling Design Air Flow Method
  ,                                       !- Cooling Design Air Flow Rate {m3/s}
  ,                                       !- Cooling Minimum Air Flow per Zone Floor Area {m3/s-m2}
  ,                                       !- Cooling Minimum Air Flow {m3/s}
  ,                                       !- Cooling Minimum Air Flow Fraction
  DesignDay,                              !- Heating Design Air Flow Method
  ,                                       !- Heating Design Air Flow Rate {m3/s}
  ,                                       !- Heating Maximum Air Flow per Zone Floor Area {m3/s-m2}
  ,                                       !- Heating Maximum Air Flow {m3/s}
  ,                                       !- Heating Maximum Air Flow Fraction
  No,                                     !- Account for Dedicated Outdoor Air System
  NeutralSupplyAir,                       !- Dedicated Outdoor Air System Control Strategy
  autosize,                               !- Dedicated Outdoor Air Low Setpoint Temperature for Design {C}
  autosize,                               !- Dedicated Outdoor Air High Setpoint Temperature for Design {C}
  Sensible Load Only No Latent Load,      !- Zone Load Sizing Method
  HumidityRatioDifference,                !- Zone Latent Cooling Design Supply Air Humidity Ratio Input Method
  ,                                       !- Zone Dehumidification Design Supply Air Humidity Ratio {kgWater/kgDryAir}
  0.005,                                  !- Zone Cooling Design Supply Air Humidity Ratio Difference {kgWater/kgDryAir}
  HumidityRatioDifference,                !- Zone Latent Heating Design Supply Air Humidity Ratio Input Method
  ,                                       !- Zone Humidification Design Supply Air Humidity Ratio {kgWater/kgDryAir}
  0.005,                                  !- Zone Humidification Design Supply Air Humidity Ratio Difference {kgWater/kgDryAir}
  ,                                       !- Zone Humidistat Dehumidification Set Point Schedule Name
  ,                                       !- Zone Humidistat Humidification Set Point Schedule Name
  ,                                       !- Design Zone Air Distribution Effectiveness in Cooling Mode
  ,                                       !- Design Zone Air Distribution Effectiveness in Heating Mode
  ,                                       !- Design Zone Secondary Recirculation Fraction {dimensionless}
  ,                                       !- Design Minimum Zone Ventilation Efficiency {dimensionless}
  Coincident;                             !- Sizing Option

OS:ZoneHVAC:EquipmentList,
  {66806307-47c0-4dd3-9d0d-ef9a1fcbde13}, !- Handle
  Zone HVAC Equipment List 2,             !- Name
  {31cb2e33-51ad-4eb0-9104-6ef0d4094a5c}; !- Thermal Zone

OS:AdditionalProperties,
  {e8d7cc43-7d38-4266-b592-eba0c07e7c21}, !- Handle
  {31cb2e33-51ad-4eb0-9104-6ef0d4094a5c}, !- Object Name
  ObjectType,                             !- Feature Name 1
  String,                                 !- Feature Data Type 1
  attic - vented;                         !- Feature Value 1

OS:Space,
  {217c3da6-0c5a-402f-b637-1c94a2d7ddb9}, !- Handle
  attic - vented 1,                       !- Name
  ,                                       !- Space Type Name
  ,                                       !- Default Construction Set Name
  ,                                       !- Default Schedule Set Name
  ,                                       !- Direction of Relative North {deg}
  ,                                       !- X Origin {m}
  ,                                       !- Y Origin {m}
  ,                                       !- Z Origin {m}
  ,                                       !- Building Story Name
  {31cb2e33-51ad-4eb0-9104-6ef0d4094a5c}, !- Thermal Zone Name
  ,                                       !- Part of Total Floor Area
  ,                                       !- Design Specification Outdoor Air Object Name
  ,                                       !- Building Unit Name
  356.390921899745;                       !- Volume {m3}

OS:Material,