
OS:Version,
  {c785dafa-5055-45e6-8cc6-ef747e1d453b}, !- Handle
  3.9.0;                                  !- Version Identifier

OS:SimulationControl,
  {049e356a-9d0a-4c2f-b75b-85d8e5d6c8b2}, !- Handle
  ,                                       !- Do Zone Sizing Calculation
  ,                                       !- Do System Sizing Calculation
  ,                                       !- Do Plant Sizing Calculation
  No;                                     !- Run Simulation for Sizing Periods

OS:Timestep,
  {ee77c3af-1a80-4953-83df-e05358519637}, !- Handle
  1;                                      !- Number of Timesteps per Hour

OS:ShadowCalculation,
  {2c88847d-d385-45c0-a93f-b6ea5c0e2a51}, !- Handle
  PolygonClipping,                        !- Shading Calculation Method
  ,                                       !- Shading Calculation Update Frequency Method
  20,                                     !- Shading Calculation Update Frequency
  200,                                    !- Maximum Figures in Shadow Overlap Calculations
  ,                                       !- Polygon Clipping Algorithm
  512,                                    !- Pixel Counting Resolution
  ,                                       !- Sky Diffuse Modeling Algorithm
  No,                                     !- Output External Shading Calculation Results
  No,                                     !- Disable Self-Shading Within Shading Zone Groups
  No;                                     !- Disable Self-Shading From Shading Zone Groups to Other Zones

OS:SurfaceConvectionAlgorithm:Outside,
  {b68a36fd-6769-450c-b15e-8977bc8c4f09}, !- Handle
  DOE-2;                                  !- Algorithm

OS:SurfaceConvectionAlgorithm:Inside,
  {2e0276b6-5f33-44c4-8bf2-06cbe8ae48d0}, !- Handle
  TARP;                                   !- Algorithm

OS:ZoneCapacitanceMultiplier:ResearchSpecial,
  {d20579ef-353a-4842-874f-119b04cb1f5a}, !- Handle
  7,                                      !- Temperature Capacity Multiplier
  15,                                     !- Humidity Capacity Multiplier
  ;                                       !- Carbon Dioxide Capacity Multiplier

OS:ConvergenceLimits,
  {260298e9-009a-43a7-b081-a3ae03018fca}, !- Handle
  0;                                      !- Minimum System Timestep {minutes}

OS:RunPeriod,
  {460345fd-c805-4816-9160-19187864772b}, !- Handle
  Run Period 1,                           !- Name
  1,                                      !- Begin Month
  1,                                      !- Begin Day of Month
  12,                                     !- End Month
  31,                                     !- End Day of Month
  ,                                       !- Use Weather File Holidays and Special Days
  ,                                       !- Use Weather File Daylight Saving Period
  ,                                       !- Apply Weekend Holiday Rule
  ,                                       !- Use Weather File Rain Indicators
  ,                                       !- Use Weather File Snow Indicators
  ;                                       !- Number of Times Runperiod to be Repeated

OS:PerformancePrecisionTradeoffs,
  {03aa2595-36de-4eec-97d6-ff410820eaf6}, !- Handle
  ,                                       !- Use Coil Direct Solutions
  CarrollMRT;                             !- Zone Radiant Exchange Algorithm

OS:WeatherFile,
  {067b9970-1f2a-4db4-b0b7-b237b31a5152}, !- Handle
  Buffalo Niagara Intl Ap,                !- City
  NY,                                     !- State Province Region
  USA,                                    !- Country
  TMY3,                                   !- Data Source
  725280,                                 !- WMO Number
  42.93,                                  !- Latitude {deg}
  -78.73,                                 !- Longitude {deg}
  -5,                                     !- Time Zone {hr}
  215,                                    !- Elevation {m}
  /Users/nmoore/github/urbanopt-example-geojson-project/example_project/weather/USA_NY_Buffalo-Greater.Buffalo.Intl.AP.725280_TMY3.epw, !- Url
  6B50E0FF,                               !- Checksum
  ,                                       !- Start Date Actual Year
  Sunday;                                 !- Start Day of Week

OS:YearDescription,
  {fbc6752c-fd4e-409f-b518-1e678687ddc6}, !- Handle
  2007,                                   !- Calendar Year
  ,                                       !- Day of Week for Start Day
  ;                                       !- Is Leap Year

OS:Site,
  {38b13a15-26ff-47ad-965c-253982fa917b}, !- Handle
  Buffalo Niagara Intl Ap_NY,             !- Name
  42.93,                                  !- Latitude {deg}
  -78.73,                                 !- Longitude {deg}
  -5,                                     !- Time Zone {hr}
  215,                                    !- Elevation {m}
  Suburbs,                                !- Terrain
  Yes;                                    !- Keep Site Location Information

OS:RunPeriodControl:DaylightSavingTime,
  {394f88e2-80bf-4526-9cd7-805ee1f04f7f}, !- Handle
  Mar 12,                                 !- Start Date
  Nov 5;                                  !- End Date

OS:Site:GroundTemperature:Shallow,
  {f4e95648-2dd0-4f7e-b9b0-05b81040ba59}, !- Handle
  4.30207395723828,                       !- January Surface Ground Temperature {C}
  2.29327249652502,                       !- February Surface Ground Temperature {C}
  2.13240047156047,                       !- March Surface Ground Temperature {C}
  3.08567940719286,                       !- April Surface Ground Temperature {C}
  6.91256312497526,                       !- May Surface Ground Temperature {C}
  10.7216195949507,                       !- June Surface Ground Temperature {C}
  14.0238679822574,                       !- July Surface Ground Temperature {C}
  16.1157611184724,                       !- August Surface Ground Temperature {C}
  16.2934789303462,                       !- September Surface Ground Temperature {C}
  14.5920754632847,                       !- October Surface Ground Temperature {C}
  11.374036348653,                        !- November Surface Ground Temperature {C}
  7.68182621661674;                       !- December Surface Ground Temperature {C}

OS:ThermalZone,
  {d46c1522-18e4-4837-b040-9165bec3ac59}, !- Handle
  conditioned space,                      !- Name
  1,                                      !- Multiplier
  ,                                       !- Ceiling Height {m}
  692.06373070848,                        !- Volume {m3}
  ,                                       !- Floor Area {m2}
  ,                                       !- Zone Inside Convection Algorithm
  ,                                       !- Zone Outside Convection Algorithm
  ,                                       !- Zone Conditioning Equipment List Name
  {e01b72df-307a-4fcb-a90e-01e362a758cb}, !- Zone Air Inlet Port List
  {bbfe8019-63fd-4935-871e-25967989277b}, !- Zone Air Exhaust Port List
  {8f22f899-20ae-40ba-af34-801d05b1a08f}, !- Zone Air Node Name
  {4749c80e-9b60-48a2-be5c-93b10738673c}, !- Zone Return Air Port List
  ,                                       !- Primary Daylighting Control Name
  ,                                       !- Fraction of Zone Controlled by Primary Daylighting Control
  ,                                       !- Secondary Daylighting Control Name
  ,                                       !- Fraction of Zone Controlled by Secondary Daylighting Control
  ,                                       !- Illuminance Map Name
  ,                                       !- Group Rendering Name
  {7fb4a503-989c-418e-9985-2a4ab527499b}, !- Thermostat Name
  No;                                     !- Use Ideal Air Loads

OS:Node,
  {aac81015-4cb2-455d-bf9c-14a7cfb8e256}, !- Handle
  Node 1,                                 !- Name
  {8f22f899-20ae-40ba-af34-801d05b1a08f}, !- Inlet Port
  ;                                       !- Outlet Port

OS:Connection,
  {8f22f899-20ae-40ba-af34-801d05b1a08f}, !- Handle
  {d46c1522-18e4-4837-b040-9165bec3ac59}, !- Source Object
  11,                                     !- Outlet Port
  {aac81015-4cb2-455d-bf9c-14a7cfb8e256}, !- Target Object
  2;                                      !- Inlet Port

OS:PortList,
  {e01b72df-307a-4fcb-a90e-01e362a758cb}, !- Handle
  {d46c1522-18e4-4837-b040-9165bec3ac59}, !- HVAC Component
  {0da142d3-0bf8-4898-9178-a55c35017f31}; !- Port 1

OS:PortList,
  {bbfe8019-63fd-4935-871e-25967989277b}, !- Handle
  {d46c1522-18e4-4837-b040-9165bec3ac59}; !- HVAC Component

OS:PortList,
  {4749c80e-9b60-48a2-be5c-93b10738673c}, !- Handle
  {d46c1522-18e4-4837-b040-9165bec3ac59}, !- HVAC Component
  {7d139355-145a-4ba4-a265-78a5e06fce1c}; !- Port 1

OS:Sizing:Zone,
  {c4895f51-cb91-4ef7-a5bd-d0293e94e16a}, !- Handle
  {d46c1522-18e4-4837-b040-9165bec3ac59}, !- Zone or ZoneList Name
  SupplyAirTemperature,                   !- Zone Cooling Design Supply Air Temperature Input Method
  14,                                     !- Zone Cooling Design Supply Air Temperature {C}
  11.11,                                  !- Zone Cooling Design Supply Air Temperature Difference {deltaC}
  SupplyAirTemperature,                   !- Zone Heating Design Supply Air Temperature Input Method
  40,                                     !- Zone Heating Design Supply Air Temperature {C}
  11.11,                                  !- Zone Heating Design Supply Air Temperature Difference {deltaC}
  0.0085,                                 !- Zone Cooling Design Supply Air Humidity Ratio {kg-H2O/kg-air}
  0.008,                                  !- Zone Heating Design Supply Air Humidity Ratio {kg-H2O/kg-air}
  ,                                       !- Zone Heating Sizing Factor
  ,                                       !- Zone Cooling Sizing Factor
  DesignDay,                              !- Cooling Design Air Flow Method
  ,                                       !- Cooling Design Air Flow Rate {m3/s}
  ,                                       !- Cooling Minimum Air Flow per Zone Floor Area {m3/s-m2}
  ,                                       !- Cooling Minimum Air Flow {m3/s}
  ,                                       !- Cooling Minimum Air Flow Fraction
  DesignDay,                              !- Heating Design Air Flow Method
  ,                                       !- Heating Design Air Flow Rate {m3/s}
  ,                                       !- Heating Maximum Air Flow per Zone Floor Area {m3/s-m2}
  ,                                       !- Heating Maximum Air Flow {m3/s}
  ,                                       !- Heating Maximum Air Flow Fraction
  No,                                     !- Account for Dedicated Outdoor Air System
  NeutralSupplyAir,                       !- Dedicated Outdoor Air System Control Strategy
  autosize,                               !- Dedicated Outdoor Air Low Setpoint Temperature for Design {C}
  autosize,                               !- Dedicated Outdoor Air High Setpoint Temperature for Design {C}
  Sensible Load Only No Latent Load,      !- Zone Load Sizing Method
  HumidityRatioDifference,                !- Zone Latent Cooling Design Supply Air Humidity Ratio Input Method
  ,                                       !- Zone Dehumidification Design Supply Air Humidity Ratio {kgWater/kgDryAir}
  0.005,                                  !- Zone Cooling Design Supply Air Humidity Ratio Difference {kgWater/kgDryAir}
  HumidityRatioDifference,                !- Zone Latent Heating Design Supply Air Humidity Ratio Input Method
  ,                                       !- Zone Humidification Design Supply Air Humidity Ratio {kgWater/kgDryAir}
  0.005,                                  !- Zone Humidification Design Supply Air Humidity Ratio Difference {kgWater/kgDryAir}
  ,                                       !- Zone Humidistat Dehumidification Set Point Schedule Name
  ,                                       !- Zone Humidistat Humidification Set Point Schedule Name
  ,                                       !- Design Zone Air Distribution Effectiveness in Cooling Mode
  ,                                       !- Design Zone Air Distribution Effectiveness in Heating Mode
  ,                                       !- Design Zone Secondary Recirculation Fraction {dimensionless}
  ,                                       !- Design Minimum Zone Ventilation Efficiency {dimensionless}
  Coincident;                             !- Sizing Option

OS:ZoneHVAC:EquipmentList,
  {3bb0b3d7-faf5-4830-bba7-3b7c70756a73}, !- Handle
  Zone HVAC Equipment List 1,             !- Name
  {d46c1522-18e4-4837-b040-9165bec3ac59}, !- Thermal Zone
  ,                                       !- Load Distribution Scheme
  {b42b0fee-6a5a-4bb8-b242-0f28fb1581a6}, !- Zone Equipment 1
  1,                                      !- Zone Equipment Cooling Sequence 1
  1,                                      !- Zone Equipment Heating or No-Load Sequence 1
  {aab0d2e2-ccee-437f-bc3b-f0161469fa19}, !- Zone Equipment Sequential Cooling Fraction Schedule Name 1
  {47b59ccf-c626-4081-9cb2-9c9b918feccf}, !- Zone Equipment Sequential Heating Fraction Schedule Name 1
  {bab3928c-c678-4612-ba83-b3b3cf1a5dc3}, !- Zone Equipment 2
  2,                                      !- Zone Equipment Cooling Sequence 2
  2,                                      !- Zone Equipment Heating or No-Load Sequence 2
  {58c68a8f-1308-4961-849c-bf07230a2d76}, !- Zone Equipment Sequential Cooling Fraction Schedule Name 2
  {5ce0a557-4ba5-4c7b-ad2e-d8a8156d4233}; !- Zone Equipment Sequential Heating Fraction Schedule Name 2

OS:AdditionalProperties,
  {b65e81c1-a298-48d2-a9f4-0404c39257ae}, !- Handle
  {d46c1522-18e4-4837-b040-9165bec3ac59}, !- Object Name
  ObjectType,                             !- Feature Name 1
  String,                                 !- Feature Data Type 1
  conditioned space;                      !- Feature Value 1

OS:Space,
  {f7aea806-ff3b-44dd-a161-9ded555ed226}, !- Handle
  conditioned space 1,                    !- Name
  ,                                       !- Space Type Name
  ,                                       !- Default Construction Set Name
  ,                                       !- Default Schedule Set Name
  ,                                       !- Direction of Relative North {deg}
  ,                                       !- X Origin {m}
  ,                                       !- Y Origin {m}
  ,                                       !- Z Origin {m}
  ,                                       !- Building Story Name
  {d46c1522-18e4-4837-b040-9165bec3ac59}, !- Thermal Zone Name
  ,                                       !- Part of Total Floor Area
  ,                                       !- Design Specification Outdoor Air Object Name
  ,                                       !- Building Unit Name
  692.06373070848;                        !- Volume {m3}

OS:Schedule:Ruleset,
  {bf9f0695-e2d2-4982-ba4e-be9081b27fa1}, !- Handle
  heating setpoint,                       !- Name
  {53505b46-22fb-4ffb-9863-273fc3e29cc5}, !- Schedule Type Limits Name
  {237adcd1-a4d2-4510-8fe7-1493c3e495cb}; !- Default Day Schedule Name

OS:Schedule:Day,
  {237adcd1-a4d2-4510-8fe7-1493c3e495cb}, !- Handle
  heating setpoint default day,           !- Name
  {53505b46-22fb-4ffb-9863-273fc3e29cc5}, !- Schedule Type Limits Name
  ,                                       !- Interpolate to Timestep
  24,                                     !- Hour 1
  0,                                      !- Minute 1
  0;                                      !- Value Until Time 1

OS:Schedule:Rule,
  {0a393685-5656-4f67-8648-a19c274bc734}, !- Handle
  heating setpoint allday rule,           !- Name
  {bf9f0695-e2d2-4982-ba4e-be9081b27fa1}, !- Schedule Ruleset Name
  0,                                      !- Rule Order
  {6c22c7d9-3011-4fcd-bd0f-c9672b45b684}, !- Day Schedule Name
  Yes,                                    !- Apply Sunday
  Yes,                                    !- Apply Monday
  Yes,                                    !- Apply Tuesday
  Yes,                                    !- Apply Wednesday
  Yes,                                    !- Apply Thursday
  Yes,                                    !- Apply Friday
  Yes,                                    !- Apply Saturday
  DateRange,                              !- Date Specification Type
  1,                                      !- Start Month
  1,                                      !- Start Day
  12,                                     !- End Month
  31;                                     !- End Day

OS:Schedule:Day,
  {6c22c7d9-3011-4fcd-bd0f-c9672b45b684}, !- Handle
  heating setpoint day,                   !- Name
  {53505b46-22fb-4ffb-9863-273fc3e29cc5}, !- Schedule Type Limits Name
  ,                                       !- Interpolate to Timestep
  24,                                     !- Hour 1
  0,                                      !- Minute 1
  20;                                     !- Value Until Time 1

OS:Schedule:Ruleset,
  {0ad28fae-796a-49f0-a0a7-48cecf55f6a5}, !- Handle
  cooling setpoint,                       !- Name
  {53505b46-22fb-4ffb-9863-273fc3e29cc5}, !- Schedule Type Limits Name
  {d0c34326-4f7d-469b-8200-423e093fc292}; !- Default Day Schedule Name

OS:Schedule:Day,
  {d0c34326-4f7d-469b-8200-423e093fc292}, !- Handle
  cooling setpoint default day,           !- Name
  {53505b46-22fb-4ffb-9863-273fc3e29cc5}, !- Schedule Type Limits Name
  ,                                       !- Interpolate to Timestep
  24,                                     !- Hour 1
  0,                                      !- Minute 1
  0;                                      !- Value Until Time 1

OS:Schedule:Rule,
  {5b249826-5b79-4084-b668-b5980a19d73f}, !- Handle
  cooling setpoint allday rule,           !- Name
  {0ad28fae-796a-49f0-a0a7-48cecf55f6a5}, !- Schedule Ruleset Name
  0,                                      !- Rule Order
  {68e781db-d947-4970-9244-a555427387b0}, !- Day Schedule Name
  Yes,                                    !- Apply Sunday
  Yes,                                    !- Apply Monday
  Yes,                                    !- Apply Tuesday
  Yes,                                    !- Apply Wednesday
  Yes,                                    !- Apply Thursday
  Yes,                                    !- Apply Friday
  Yes,                                    !- Apply Saturday
  DateRange,                              !- Date Specification Type
  1,                                      !- Start Month
  1,                                      !- Start Day
  12,                                     !- End Month
  31;                                     !- End Day

OS:Schedule:Day,
  {68e781db-d947-4970-9244-a555427387b0}, !- Handle
  cooling setpoint day,                   !- Name
  {53505b46-22fb-4ffb-9863-273fc3e29cc5}, !- Schedule Type Limits Name
  ,                                       !- Interpolate to Timestep
  24,                                     !- Hour 1
  0,                                      !- Minute 1
  25.5555555555556;                       !- Value Until Time 1

OS:ThermostatSetpoint:DualSetpoint,
  {7fb4a503-989c-418e-9985-2a4ab527499b}, !- Handle
  conditioned space temperature setpoint, !- Name
  {bf9f0695-e2d2-4982-ba4e-be9081b27fa1}, !- Heating Setpoint Temperature Schedule Name
  {0ad28fae-796a-49f0-a0a7-48cecf55f6a5}, !- Cooling Setpoint Temperature Schedule Name
  0;                                      !- Temperature Difference Between Cutout And Setpoint {deltaC}

OS:ScheduleTypeLimits,
  {53505b46-22fb-4ffb-9863-273fc3e29cc5}, !- Handle
  Temperature,                            !- Name
  ,                                       !- Lower Limit Value
  ,                                       !- Upper Limit Value
  Continuous,                             !- Numeric Type
  Temperature;                            !- Unit Type

OS:Surface,
  {f786824d-f0df-43b0-8270-6ce670860044}, !- Handle
  Roof1,                                  !- Name
  RoofCeiling,                            !- Surface Type
  {8f31d894-c0ff-4362-8220-1360c5395ff8}, !- Construction Name
  {e512bac5-8a7f-45fa-9c67-486ff0107108}, !- Space Name
  Outdoors,                               !- Outside Boundary Condition
  ,                                       !- Outside Boundary Condition Object
  SunExposed,                             !- Sun Exposure
  WindExposed,                            !- Wind Exposure
  ,                                       !- View Factor to Ground
  ,                                       !- Number of Vertices
  -26.9347048849634, 58.0557891618865, 2.4384, !- X,Y,Z Vertex 1 {m}
  -26.9347048849634, 46.7895631136661, 8.0715130241102, !- X,Y,Z Vertex 2 {m}
  -14.3386812381136, 46.7895631136661, 8.0715130241102, !- X,Y,Z Vertex 3 {m}
  -14.3386812381136, 58.0557891618865, 2.4384; !- X,Y,Z Vertex 4 {m}

OS:AdditionalProperties,
  {aeeec0cb-f46b-4ae6-9932-a41841f0ba83}, !- Handle
  {f786824d-f0df-43b0-8270-6ce670860044}, !- Object Name
  Length,                                 !- Feature Name 1
  Double,                                 !- Feature Data Type 1
  41.325536899113608,                     !- Feature Value 1
  Width,                                  !- Feature Name 2
  Double,                                 !- Feature Data Type 2
  41.325536899113601,                     !- Feature Value 2
  Azimuth,                                !- Feature Name 3
  Integer,                                !- Feature Data Type 3
  0,                                      !- Feature Value 3
  Tilt,                                   !- Feature Name 4
  Double,                                 !- Feature Data Type 4
  0.5,                                    !- Feature Value 4
  SurfaceType,                            !- Feature Name 5
  String,                                 !- Feature Data Type 5
  Roof;                                   !- Feature Value 5

OS:ThermalZone,
  {dff9f628-cf3c-4178-a295-6190386cfe82}, !- Handle
  attic - vented,                         !- Name
  1,                                      !- Multiplier
  ,                                       !- Ceiling Height {m}
  356.389957095237,                       !- Volume {m3}
  ,                                       !- Floor Area {m2}
  ,                                       !- Zone Inside Convection Algorithm
  ,                                       !- Zone Outside Convection Algorithm
  ,                                       !- Zone Conditioning Equipment List Name
  {f2985cbf-9d99-4b2e-a8d4-5c4d82eac7cb}, !- Zone Air Inlet Port List
  {1962e534-6472-43ee-b600-3b1ccad90d85}, !- Zone Air Exhaust Port List
  {769960e8-0b17-4e6a-bfb5-3353b422a88d}, !- Zone Air Node Name
  {1fae7edf-2145-443d-b80d-6675a0c48309}, !- Zone Return Air Port List
  ,                                       !- Primary Daylighting Control Name
  ,                                       !- Fraction of Zone Controlled by Primary Daylighting Control
  ,                                       !- Secondary Daylighting Control Name
  ,                                       !- Fraction of Zone Controlled by Secondary Daylighting Control
  ,                                       !- Illuminance Map Name
  ,                                       !- Group Rendering Name
  ,                                       !- Thermostat Name
  No;                                     !- Use Ideal Air Loads

OS:Node,
  {1c2ddc48-de44-4c35-ad19-8b4a48d0aaff}, !- Handle
  Node 2,                                 !- Name
  {769960e8-0b17-4e6a-bfb5-3353b422a88d}, !- Inlet Port
  ;                                       !- Outlet Port

OS:Connection,
  {769960e8-0b17-4e6a-bfb5-3353b422a88d}, !- Handle
  {dff9f628-cf3c-4178-a295-6190386cfe82}, !- Source Object
  11,                                     !- Outlet Port
  {1c2ddc48-de44-4c35-ad19-8b4a48d0aaff}, !- Target Object
  2;                                      !- Inlet Port

OS:PortList,
  {f2985cbf-9d99-4b2e-a8d4-5c4d82eac7cb}, !- Handle
  {dff9f628-cf3c-4178-a295-6190386cfe82}; !- HVAC Component

OS:PortList,
  {1962e534-6472-43ee-b600-3b1ccad90d85}, !- Handle
  {dff9f628-cf3c-4178-a295-6190386cfe82}; !- HVAC Component

OS:PortList,
  {1fae7edf-2145-443d-b80d-6675a0c48309}, !- Handle
  {dff9f628-cf3c-4178-a295-6190386cfe82}; !- HVAC Component

OS:Sizing:Zone,
  {13ece0b3-afa8-44d3-acde-d2913d5346fb}, !- Handle
  {dff9f628-cf3c-4178-a295-6190386cfe82}, !- Zone or ZoneList Name
  SupplyAirTemperature,                   !- Zone Cooling Design Supply Air Temperature Input Method
  14,                                     !- Zone Cooling Design Supply Air Temperature {C}
  11.11,                                  !- Zone Cooling Design Supply Air Temperature Difference {deltaC}
  SupplyAirTemperature,                   !- Zone Heating Design Supply Air Temperature Input Method
  40,                                     !- Zone Heating Design Supply Air Temperature {C}
  11.11,                                  !- Zone Heating Design Supply Air Temperature Difference {deltaC}
  0.0085,                                 !- Zone Cooling Design Supply Air Humidity Ratio {kg-H2O/kg-air}
  0.008,                                  !- Zone Heating Design Supply Air Humidity Ratio {kg-H2O/kg-air}
  ,                                       !- Zone Heating Sizing Factor
  ,                                       !- Zone Cooling Sizing Factor
  DesignDay,                              !- Cooling Design Air Flow Method
  ,                                       !- Cooling Design Air Flow Rate {m3/s}
  ,                                       !- Cooling Minimum Air Flow per Zone Floor Area {m3/s-m2}
  ,                                       !- Cooling Minimum Air Flow {m3/s}
  ,                                       !- Cooling Minimum Air Flow Fraction
  DesignDay,                              !- Heating Design Air Flow Method
  ,                                       !- Heating Design Air Flow Rate {m3/s}
  ,                                       !- Heating Maximum Air Flow per Zone Floor Area {m3/s-m2}
  ,                                       !- Heating Maximum Air Flow {m3/s}
  ,                                       !- Heating Maximum Air Flow Fraction
  No,                                     !- Account for Dedicated Outdoor Air System
  NeutralSupplyAir,                       !- Dedicated Outdoor Air System Control Strategy
  autosize,                               !- Dedicated Outdoor Air Low Setpoint Temperature for Design {C}
  autosize,                               !- Dedicated Outdoor Air High Setpoint Temperature for Design {C}
  Sensible Load Only No Latent Load,      !- Zone Load Sizing Method
  HumidityRatioDifference,                !- Zone Latent Cooling Design Supply Air Humidity Ratio Input Method
  ,                                       !- Zone Dehumidification Design Supply Air Humidity Ratio {kgWater/kgDryAir}
  0.005,                                  !- Zone Cooling Design Supply Air Humidity Ratio Difference {kgWater/kgDryAir}
  HumidityRatioDifference,                !- Zone Latent Heating Design Supply Air Humidity Ratio Input Method
  ,                                       !- Zone Humidification Design Supply Air Humidity Ratio {kgWater/kgDryAir}
  0.005,                                  !- Zone Humidification Design Supply Air Humidity Ratio Difference {kgWater/kgDryAir}
  ,                                       !- Zone Humidistat Dehumidification Set Point Schedule Name
  ,                                       !- Zone Humidistat Humidification Set Point Schedule Name
  ,                                       !- Design Zone Air Distribution Effectiveness in Cooling Mode
  ,                                       !- Design Zone Air Distribution Effectiveness in Heating Mode
  ,                                       !- Design Zone Secondary Recirculation Fraction {dimensionless}
  ,                                       !- Design Minimum Zone Ventilation Efficiency {dimensionless}
  Coincident;                             !- Sizing Option

OS:ZoneHVAC:EquipmentList,
  {2a520dc9-1f23-48a8-9918-8d9cdb1b1c03}, !- Handle
  Zone HVAC Equipment List 2,             !- Name
  {dff9f628-cf3c-4178-a295-6190386cfe82}; !- Thermal Zone

OS:AdditionalProperties,
  {b73938b7-76ba-4387-8fd8-ab1539f187d9}, !- Handle
  {dff9f628-cf3c-4178-a295-6190386cfe82}, !- Object Name
  ObjectType,                             !- Feature Name 1
  String,                                 !- Feature Data Type 1
  attic - vented;                         !- Feature Value 1

OS:Space,
  {e512bac5-8a7f-45fa-9c67-486ff0107108}, !- Handle
  attic - vented 1,                       !- Name
  ,                                       !- Space Type Name
  ,                                       !- Default Construction Set Name
  ,                                       !- Default Schedule Set Name
  ,                                       !- Direction of Relative North {deg}
  ,                                       !- X Origin {m}
  ,                                       !- Y Origin {m}
  ,                                       !- Z Origin {m}
  ,                                       !- Building Story Name
  {dff9f628-cf3c-4178-a295-6190386cfe82}, !- Thermal Zone Name
  ,                                       !- Part of Total Floor Area
  ,                                       !- Design Specification Outdoor Air Object Name
  ,                                       !- Building Unit Name
  356.389957095237;                       !- Volume {m3}

OS:Material,
  {928388c9-1b6c-4b7d-b8f9-7368781a4ce5}, !- Handle
  asphalt or fiberglass shingles,         !- Name