
OS:Version,
  {01ee8c88-9d96-41a8-acf6-0b66d44750db}, !- Handle
  3.10.0;                                 !- Version Identifier

OS:SimulationControl,
  {7b1b6766-5578-42f9-bf5f-b14dd0b13f69}, !- Handle
  ,                                       !- Do Zone Sizing Calculation
  ,                                       !- Do System Sizing Calculation
  ,                                       !- Do Plant Sizing Calculation
  No;                                     !- Run Simulation for Sizing Periods

OS:Timestep,
  {2830d643-8c1c-4426-9982-ead4943e8e8f}, !- Handle
  1;                                      !- Number of Timesteps per Hour

OS:ShadowCalculation,
  {817370e1-2d2e-4c60-88fc-08b7a23e0464}, !- Handle
  PolygonClipping,                        !- Shading Calculation Method
  ,                                       !- Shading Calculation Update Frequency Method
  20,                                     !- Shading Calculation Update Frequency
  200,                                    !- Maximum Figures in Shadow Overlap Calculations
  ,                                       !- Polygon Clipping Algorithm
  512,                                    !- Pixel Counting Resolution
  ,                                       !- Sky Diffuse Modeling Algorithm
  No,                                     !- Output External Shading Calculation Results
  No,                                     !- Disable Self-Shading Within Shading Zone Groups
  No;                                     !- Disable Self-Shading From Shading Zone Groups to Other Zones

OS:SurfaceConvectionAlgorithm:Outside,
  {1b776368-a1a0-4d74-8738-57dac2b48ab2}, !- Handle
  DOE-2;                                  !- Algorithm

OS:SurfaceConvectionAlgorithm:Inside,
  {8eac4fd8-2587-41af-a737-51fe85d0e6b1}, !- Handle
  TARP;                                   !- Algorithm

OS:ZoneCapacitanceMultiplier:ResearchSpecial,
  {800c925e-52fd-4cae-b84c-34a9e073da2b}, !- Handle
  7,                                      !- Temperature Capacity Multiplier
  15,                                     !- Humidity Capacity Multiplier
  ;                                       !- Carbon Dioxide Capacity Multiplier

OS:ConvergenceLimits,
  {2ead53fe-f7e0-46e0-b3d9-9b65ee1c50d7}, !- Handle
  0;                                      !- Minimum System Timestep {minutes}

OS:RunPeriod,
  {6c69c1ce-e18e-479c-acf5-477e9aa29ef9}, !- Handle
  Run Period 1,                           !- Name
  1,                                      !- Begin Month
  1,                                      !- Begin Day of Month
  12,                                     !- End Month
  31,                                     !- End Day of Month
  ,                                       !- Use Weather File Holidays and Special Days
  ,                                       !- Use Weather File Daylight Saving Period
  ,                                       !- Apply Weekend Holiday Rule
  ,                                       !- Use Weather File Rain Indicators
  ,                                       !- Use Weather File Snow Indicators
  ;                                       !- Number of Times Runperiod to be Repeated

OS:PerformancePrecisionTradeoffs,
  {1a075cbc-75a7-4094-ae27-142c2c7ff520}, !- Handle
  ,                                       !- Use Coil Direct Solutions
  CarrollMRT;                             !- Zone Radiant Exchange Algorithm

OS:WeatherFile,
  {9b2093e1-3a83-478d-8998-0770272557de}, !- Handle
  Buffalo Niagara Intl Ap,                !- City
  NY,                                     !- State Province Region
  USA,                                    !- Country
  TMY3,                                   !- Data Source
  725280,                                 !- WMO Number
  42.93,                                  !- Latitude {deg}
  -78.73,                                 !- Longitude {deg}
  -5,                                     !- Time Zone {hr}
  215,                                    !- Elevation {m}
  /Users/nmoore/github/urbanopt-example-geojson-project/example_project/weather/USA_NY_Buffalo-Greater.Buffalo.Intl.AP.725280_TMY3.epw, !- Url
  6B50E0FF,                               !- Checksum
  ,                                       !- Start Date Actual Year
  Sunday;                                 !- Start Day of Week

OS:YearDescription,
  {e9dc0f4e-dafc-4a50-8f20-703a53305a82}, !- Handle
  2007,                                   !- Calendar Year
  ,                                       !- Day of Week for Start Day
  ;                                       !- Is Leap Year

OS:Site,
  {bd1dd54e-2353-4394-98a9-54ab8ab647f5}, !- Handle
  Buffalo Niagara Intl Ap_NY,             !- Name
  42.93,                                  !- Latitude {deg}
  -78.73,                                 !- Longitude {deg}
  -5,                                     !- Time Zone {hr}
  215,                                    !- Elevation {m}
  Suburbs,                                !- Terrain
  Yes;                                    !- Keep Site Location Information

OS:RunPeriodControl:DaylightSavingTime,
  {5e407c45-1a7f-4359-9d57-54139997bec6}, !- Handle
  Mar 12,                                 !- Start Date
  Nov 5;                                  !- End Date

OS:Site:GroundTemperature:Shallow,
  {c5e0753b-e992-4e49-aa2b-b957e3ea01af}, !- Handle
  4.30207395723828,                       !- January Surface Ground Temperature {C}
  2.29327249652502,                       !- February Surface Ground Temperature {C}
  2.13240047156047,                       !- March Surface Ground Temperature {C}
  3.08567940719286,                       !- April Surface Ground Temperature {C}
  6.91256312497526,                       !- May Surface Ground Temperature {C}
  10.7216195949507,                       !- June Surface Ground Temperature {C}
  14.0238679822574,                       !- July Surface Ground Temperature {C}
  16.1157611184724,                       !- August Surface Ground Temperature {C}
  16.2934789303462,                       !- September Surface Ground Temperature {C}
  14.5920754632847,                       !- October Surface Ground Temperature {C}
  11.374036348653,                        !- November Surface Ground Temperature {C}
  7.68182621661674;                       !- December Surface Ground Temperature {C}

OS:ThermalZone,
  {6f89805f-f413-48d2-a8f8-23eb29fce001}, !- Handle
  conditioned space,                      !- Name
  1,                                      !- Multiplier
  ,                                       !- Ceiling Height {m}
  692.06373070848,                        !- Volume {m3}
  ,                                       !- Floor Area {m2}
  ,                                       !- Zone Inside Convection Algorithm
  ,                                       !- Zone Outside Convection Algorithm
  ,                                       !- Zone Conditioning Equipment List Name
  {d3199a79-b584-4987-a976-602e7b46cf04}, !- Zone Air Inlet Port List
  {0e9c931b-a37f-47a5-adc3-fae17a420ee8}, !- Zone Air Exhaust Port List
  {bfc0897f-150d-4a81-a97a-dc4b972dabc3}, !- Zone Air Node Name
  {118fb476-c79b-452c-ace7-3cab323dc7a8}, !- Zone Return Air Port List
  ,                                       !- Primary Daylighting Control Name
  ,                                       !- Fraction of Zone Controlled by Primary Daylighting Control
  ,                                       !- Secondary Daylighting Control Name
  ,                                       !- Fraction of Zone Controlled by Secondary Daylighting Control
  ,                                       !- Illuminance Map Name
  ,                                       !- Group Rendering Name
  {81d27c21-95e4-4a78-b617-23bfdf8ca5cf}, !- Thermostat Name
  No;                                     !- Use Ideal Air Loads

OS:Node,
  {05bb9a67-2549-4153-9f36-7ddc045534ec}, !- Handle
  Node 1,                                 !- Name
  {bfc0897f-150d-4a81-a97a-dc4b972dabc3}, !- Inlet Port
  ;                                       !- Outlet Port

OS:Connection,
  {bfc0897f-150d-4a81-a97a-dc4b972dabc3}, !- Handle
  {6f89805f-f413-48d2-a8f8-23eb29fce001}, !- Source Object
  11,                                     !- Outlet Port
  {05bb9a67-2549-4153-9f36-7ddc045534ec}, !- Target Object
  2;                                      !- Inlet Port

OS:PortList,
  {d3199a79-b584-4987-a976-602e7b46cf04}, !- Handle
  {6f89805f-f413-48d2-a8f8-23eb29fce001}, !- HVAC Component
  {4fb3fb12-4307-40e8-84c0-dadb7cdcf76b}; !- Port 1

OS:PortList,
  {0e9c931b-a37f-47a5-adc3-fae17a420ee8}, !- Handle
  {6f89805f-f413-48d2-a8f8-23eb29fce001}; !- HVAC Component

OS:PortList,
  {118fb476-c79b-452c-ace7-3cab323dc7a8}, !- Handle
  {6f89805f-f413-48d2-a8f8-23eb29fce001}, !- HVAC Component
  {9bdabe40-7cab-4483-af25-8430e962989c}; !- Port 1

OS:Sizing:Zone,
  {c3823bc8-ad16-46f6-a1f0-817e4462efb1}, !- Handle
  {6f89805f-f413-48d2-a8f8-23eb29fce001}, !- Zone or ZoneList Name
  SupplyAirTemperature,                   !- Zone Cooling Design Supply Air Temperature Input Method
  14,                                     !- Zone Cooling Design Supply Air Temperature {C}
  11.11,                                  !- Zone Cooling Design Supply Air Temperature Difference {deltaC}
  SupplyAirTemperature,                   !- Zone Heating Design Supply Air Temperature Input Method
  40,                                     !- Zone Heating Design Supply Air Temperature {C}
  11.11,                                  !- Zone Heating Design Supply Air Temperature Difference {deltaC}
  0.0085,                                 !- Zone Cooling Design Supply Air Humidity Ratio {kg-H2O/kg-air}
  0.008,                                  !- Zone Heating Design Supply Air Humidity Ratio {kg-H2O/kg-air}
  ,                                       !- Zone Heating Sizing Factor
  ,                                       !- Zone Cooling Sizing Factor
  DesignDay,                              !- Cooling Design Air Flow Method
  ,                                       !- Cooling Design Air Flow Rate {m3/s}
  ,                                       !- Cooling Minimum Air Flow per Zone Floor Area {m3/s-m2}
  ,                                       !- Cooling Minimum Air Flow {m3/s}
  ,                                       !- Cooling Minimum Air Flow Fraction
  DesignDay,                              !- Heating Design Air Flow Method
  ,                                       !- Heating Design Air Flow Rate {m3/s}
  ,                                       !- Heating Maximum Air Flow per Zone Floor Area {m3/s-m2}
  ,                                       !- Heating Maximum Air Flow {m3/s}
  ,                                       !- Heating Maximum Air Flow Fraction
  No,                                     !- Account for Dedicated Outdoor Air System
  NeutralSupplyAir,                       !- Dedicated Outdoor Air System Control Strategy
  autosize,                               !- Dedicated Outdoor Air Low Setpoint Temperature for Design {C}
  autosize,                               !- Dedicated Outdoor Air High Setpoint Temperature for Design {C}
  Sensible Load Only No Latent Load,      !- Zone Load Sizing Method
  HumidityRatioDifference,                !- Zone Latent Cooling Design Supply Air Humidity Ratio Input Method
  ,                                       !- Zone Dehumidification Design Supply Air Humidity Ratio {kgWater/kgDryAir}
  0.005,                                  !- Zone Cooling Design Supply Air Humidity Ratio Difference {kgWater/kgDryAir}
  HumidityRatioDifference,                !- Zone Latent Heating Design Supply Air Humidity Ratio Input Method
  ,                                       !- Zone Humidification Design Supply Air Humidity Ratio {kgWater/kgDryAir}
  0.005,                                  !- Zone Humidification Design Supply Air Humidity Ratio Difference {kgWater/kgDryAir}
  ,                                       !- Zone Humidistat Dehumidification Set Point Schedule Name
  ,                                       !- Zone Humidistat Humidification Set Point Schedule Name
  ,                                       !- Design Zone Air Distribution Effectiveness in Cooling Mode
  ,                                       !- Design Zone Air Distribution Effectiveness in Heating Mode
  ,                                       !- Design Zone Secondary Recirculation Fraction {dimensionless}
  ,                                       !- Design Minimum Zone Ventilation Efficiency {dimensionless}
  Coincident;                             !- Sizing Option

OS:ZoneHVAC:EquipmentList,
  {a4554ce1-3265-4c7a-996d-ae06e42c2fb7}, !- Handle
  Zone HVAC Equipment List 1,             !- Name
  {6f89805f-f413-48d2-a8f8-23eb29fce001}, !- Thermal Zone
  ,                                       !- Load Distribution Scheme
  {5e9b52d4-f2ce-4b6a-9b8a-0121c1d1ac0e}, !- Zone Equipment 1
  1,                                      !- Zone Equipment Cooling Sequence 1
  1,                                      !- Zone Equipment Heating or No-Load Sequence 1
  {867a9c19-e035-4981-bd4a-82ae0e3b89df}, !- Zone Equipment Sequential Cooling Fraction Schedule Name 1
  {c0a7626e-435c-42ab-bb9c-d7ae50e3f283}, !- Zone Equipment Sequential Heating Fraction Schedule Name 1
  {03597e7e-7e7c-4c68-89d3-931d4b5b1e63}, !- Zone Equipment 2
  2,                                      !- Zone Equipment Cooling Sequence 2
  2,                                      !- Zone Equipment Heating or No-Load Sequence 2
  {74b89f71-b02e-4188-8253-a3fe333feef9}, !- Zone Equipment Sequential Cooling Fraction Schedule Name 2
  {9f9144e8-53e0-408e-86d9-dc9101a4a7b1}; !- Zone Equipment Sequential Heating Fraction Schedule Name 2

OS:AdditionalProperties,
  {8ab02389-108f-42f8-8feb-914d18468cbd}, !- Handle
  {6f89805f-f413-48d2-a8f8-23eb29fce001}, !- Object Name
  ObjectType,                             !- Feature Name 1
  String,                                 !- Feature Data Type 1
  conditioned space;                      !- Feature Value 1

OS:Space,
  {0af6c463-0460-4067-aac1-5fe0ccc59eee}, !- Handle
  conditioned space 1,                    !- Name
  ,                                       !- Space Type Name
  ,                                       !- Default Construction Set Name
  ,                                       !- Default Schedule Set Name
  ,                                       !- Direction of Relative North {deg}
  ,                                       !- X Origin {m}
  ,                                       !- Y Origin {m}
  ,                                       !- Z Origin {m}
  ,                                       !- Building Story Name
  {6f89805f-f413-48d2-a8f8-23eb29fce001}, !- Thermal Zone Name
  ,                                       !- Part of Total Floor Area
  ,                                       !- Design Specification Outdoor Air Object Name
  ,                                       !- Building Unit Name
  692.06373070848;                        !- Volume {m3}

OS:Schedule:Ruleset,
  {cf2fd9b1-9511-415c-a092-a008c7059532}, !- Handle
  heating setpoint,                       !- Name
  {ffbd7b15-3636-4d6d-9210-126fb543b30e}, !- Schedule Type Limits Name
  {7805e365-c280-4d93-9f51-9e8084dfeaa1}; !- Default Day Schedule Name

OS:Schedule:Day,
  {7805e365-c280-4d93-9f51-9e8084dfeaa1}, !- Handle
  heating setpoint default day,           !- Name
  {ffbd7b15-3636-4d6d-9210-126fb543b30e}, !- Schedule Type Limits Name
  ,                                       !- Interpolate to Timestep
  24,                                     !- Hour 1
  0,                                      !- Minute 1
  0;                                      !- Value Until Time 1

OS:Schedule:Rule,
  {e53b2c3c-faef-4fde-840d-d72468cfdcf8}, !- Handle
  heating setpoint allday rule,           !- Name
  {cf2fd9b1-9511-415c-a092-a008c7059532}, !- Schedule Ruleset Name
  0,                                      !- Rule Order
  {a8e260a2-063e-4b4a-a629-758be4ee786b}, !- Day Schedule Name
  Yes,                                    !- Apply Sunday
  Yes,                                    !- Apply Monday
  Yes,                                    !- Apply Tuesday
  Yes,                                    !- Apply Wednesday
  Yes,                                    !- Apply Thursday
  Yes,                                    !- Apply Friday
  Yes,                                    !- Apply Saturday
  DateRange,                              !- Date Specification Type
  1,                                      !- Start Month
  1,                                      !- Start Day
  12,                                     !- End Month
  31;                                     !- End Day

OS:Schedule:Day,
  {a8e260a2-063e-4b4a-a629-758be4ee786b}, !- Handle
  heating setpoint day,                   !- Name
  {ffbd7b15-3636-4d6d-9210-126fb543b30e}, !- Schedule Type Limits Name
  ,                                       !- Interpolate to Timestep
  24,                                     !- Hour 1
  0,                                      !- Minute 1
  20;                                     !- Value Until Time 1

OS:Schedule:Ruleset,
  {71eea148-6c01-44e5-8671-7293fd8cf5ce}, !- Handle
  cooling setpoint,                       !- Name
  {ffbd7b15-3636-4d6d-9210-126fb543b30e}, !- Schedule Type Limits Name
  {18e3cdb2-7541-4928-866c-f15d016f95a7}; !- Default Day Schedule Name

OS:Schedule:Day,
  {18e3cdb2-7541-4928-866c-f15d016f95a7}, !- Handle
  cooling setpoint default day,           !- Name
  {ffbd7b15-3636-4d6d-9210-126fb543b30e}, !- Schedule Type Limits Name
  ,                                       !- Interpolate to Timestep
  24,                                     !- Hour 1
  0,                                      !- Minute 1
  0;                                      !- Value Until Time 1

OS:Schedule:Rule,
  {06cd066d-4c28-440e-a33b-53f7ebe3be43}, !- Handle
  cooling setpoint allday rule,           !- Name
  {71eea148-6c01-44e5-8671-7293fd8cf5ce}, !- Schedule Ruleset Name
  0,                                      !- Rule Order
  {ee548301-b519-447c-a9f6-f137b53199dc}, !- Day Schedule Name
  Yes,                                    !- Apply Sunday
  Yes,                                    !- Apply Monday
  Yes,                                    !- Apply Tuesday
  Yes,                                    !- Apply Wednesday
  Yes,                                    !- Apply Thursday
  Yes,                                    !- Apply Friday
  Yes,                                    !- Apply Saturday
  DateRange,                              !- Date Specification Type
  1,                                      !- Start Month
  1,                                      !- Start Day
  12,                                     !- End Month
  31;                                     !- End Day

OS:Schedule:Day,
  {ee548301-b519-447c-a9f6-f137b53199dc}, !- Handle
  cooling setpoint day,                   !- Name
  {ffbd7b15-3636-4d6d-9210-126fb543b30e}, !- Schedule Type Limits Name
  ,                                       !- Interpolate to Timestep
  24,                                     !- Hour 1
  0,                                      !- Minute 1
  25.5555555555556;                       !- Value Until Time 1

OS:ThermostatSetpoint:DualSetpoint,
  {81d27c21-95e4-4a78-b617-23bfdf8ca5cf}, !- Handle
  conditioned space temperature setpoint, !- Name
  {cf2fd9b1-9511-415c-a092-a008c7059532}, !- Heating Setpoint Temperature Schedule Name
  {71eea148-6c01-44e5-8671-7293fd8cf5ce}, !- Cooling Setpoint Temperature Schedule Name
  0;                                      !- Temperature Difference Between Cutout And Setpoint {deltaC}

OS:ScheduleTypeLimits,
  {ffbd7b15-3636-4d6d-9210-126fb543b30e}, !- Handle
  Temperature,                            !- Name
  ,                                       !- Lower Limit Value
  ,                                       !- Upper Limit Value
  Continuous,                             !- Numeric Type
  Temperature;                            !- Unit Type

OS:Surface,
  {6f938100-6d60-4f57-893b-fa2aaa6ff4e0}, !- Handle
  Roof1,                                  !- Name
  RoofCeiling,                            !- Surface Type
  {d8031fbc-cca7-40a0-a83c-bc71aa1753e9}, !- Construction Name
  {906fc67d-0628-4030-bcf8-095a9c16734b}, !- Space Name
  Outdoors,                               !- Outside Boundary Condition
  ,                                       !- Outside Boundary Condition Object
  SunExposed,                             !- Sun Exposure
  WindExposed,                            !- Wind Exposure
  ,                                       !- View Factor to Ground
  ,                                       !- Number of Vertices
  -26.9347048849634, 58.0557891618865, 2.4384, !- X,Y,Z Vertex 1 {m}
  -26.9347048849634, 46.7895631136661, 8.0715130241102, !- X,Y,Z Vertex 2 {m}
  -14.3386812381136, 46.7895631136661, 8.0715130241102, !- X,Y,Z Vertex 3 {m}
  -14.3386812381136, 58.0557891618865, 2.4384; !- X,Y,Z Vertex 4 {m}

OS:AdditionalProperties,
  {8e8efed8-4d82-4d74-9c59-6938a8ab3952}, !- Handle
  {6f938100-6d60-4f57-893b-fa2aaa6ff4e0}, !- Object Name
  Length,                                 !- Feature Name 1
  Double,                                 !- Feature Data Type 1
  41.325536899113608,                     !- Feature Value 1
  Width,                                  !- Feature Name 2
  Double,                                 !- Feature Data Type 2
  41.325536899113601,                     !- Feature Value 2
  Azimuth,                                !- Feature Name 3
  Integer,                                !- Feature Data Type 3
  0,                                      !- Feature Value 3
  Tilt,                                   !- Feature Name 4
  Double,                                 !- Feature Data Type 4
  0.5,                                    !- Feature Value 4
  SurfaceType,                            !- Feature Name 5
  String,                                 !- Feature Data Type 5
  Roof;                                   !- Feature Value 5

OS:ThermalZone,
  {91b5a87f-0e56-4eff-8f6d-deb0cd5844e6}, !- Handle
  attic - vented,                         !- Name
  1,                                      !- Multiplier
  ,                                       !- Ceiling Height {m}
  356.390921899745,                       !- Volume {m3}
  ,                                       !- Floor Area {m2}
  ,                                       !- Zone Inside Convection Algorithm
  ,                                       !- Zone Outside Convection Algorithm
  ,                                       !- Zone Conditioning Equipment List Name
  {8321a2a9-521c-41b1-9b9e-a5869b596ac1}, !- Zone Air Inlet Port List
  {3c7fca1a-1cbf-4477-a600-e370cbd0942a}, !- Zone Air Exhaust Port List
  {c4f3da4a-9256-4dc4-8dac-bd4509b60d73}, !- Zone Air Node Name
  {1962713b-9329-4b3f-8ff6-cee1b1ccd81a}, !- Zone Return Air Port List
  ,                                       !- Primary Daylighting Control Name
  ,                                       !- Fraction of Zone Controlled by Primary Daylighting Control
  ,                                       !- Secondary Daylighting Control Name
  ,                                       !- Fraction of Zone Controlled by Secondary Daylighting Control
  ,                                       !- Illuminance Map Name
  ,                                       !- Group Rendering Name
  ,                                       !- Thermostat Name
  No;                                     !- Use Ideal Air Loads

OS:Node,
  {67d357a3-5aa1-4c89-b2d9-971816d75440}, !- Handle
  Node 2,                                 !- Name
  {c4f3da4a-9256-4dc4-8dac-bd4509b60d73}, !- Inlet Port
  ;                                       !- Outlet Port

OS:Connection,
  {c4f3da4a-9256-4dc4-8dac-bd4509b60d73}, !- Handle
  {91b5a87f-0e56-4eff-8f6d-deb0cd5844e6}, !- Source Object
  11,                                     !- Outlet Port
  {67d357a3-5aa1-4c89-b2d9-971816d75440}, !- Target Object
  2;                                      !- Inlet Port

OS:PortList,
  {8321a2a9-521c-41b1-9b9e-a5869b596ac1}, !- Handle
  {91b5a87f-0e56-4eff-8f6d-deb0cd5844e6}; !- HVAC Component

OS:PortList,
  {3c7fca1a-1cbf-4477-a600-e370cbd0942a}, !- Handle
  {91b5a87f-0e56-4eff-8f6d-deb0cd5844e6}; !- HVAC Component

OS:PortList,
  {1962713b-9329-4b3f-8ff6-cee1b1ccd81a}, !- Handle
  {91b5a87f-0e56-4eff-8f6d-deb0cd5844e6}; !- HVAC Component

OS:Sizing:Zone,
  {efda3755-9142-4420-8417-48ad6be962cd}, !- Handle
  {91b5a87f-0e56-4eff-8f6d-deb0cd5844e6}, !- Zone or ZoneList Name
  SupplyAirTemperature,                   !- Zone Cooling Design Supply Air Temperature Input Method
  14,                                     !- Zone Cooling Design Supply Air Temperature {C}
  11.11,                                  !- Zone Cooling Design Supply Air Temperature Difference {deltaC}
  SupplyAirTemperature,                   !- Zone Heating Design Supply Air Temperature Input Method
  40,                                     !- Zone Heating Design Supply Air Temperature {C}
  11.11,                                  !- Zone Heating Design Supply Air Temperature Difference {deltaC}
  0.0085,                                 !- Zone Cooling Design Supply Air Humidity Ratio {kg-H2O/kg-air}
  0.008,                                  !- Zone Heating Design Supply Air Humidity Ratio {kg-H2O/kg-air}
  ,                                       !- Zone Heating Sizing Factor
  ,                                       !- Zone Cooling Sizing Factor
  DesignDay,                              !- Cooling Design Air Flow Method
  ,                                       !- Cooling Design Air Flow Rate {m3/s}
  ,                                       !- Cooling Minimum Air Flow per Zone Floor Area {m3/s-m2}
  ,                                       !- Cooling Minimum Air Flow {m3/s}
  ,                                       !- Cooling Minimum Air Flow Fraction
  DesignDay,                              !- Heating Design Air Flow Method
  ,                                       !- Heating Design Air Flow Rate {m3/s}
  ,                                       !- Heating Maximum Air Flow per Zone Floor Area {m3/s-m2}
  ,                                       !- Heating Maximum Air Flow {m3/s}
  ,                                       !- Heating Maximum Air Flow Fraction
  No,                                     !- Account for Dedicated Outdoor Air System
  NeutralSupplyAir,                       !- Dedicated Outdoor Air System Control Strategy
  autosize,                               !- Dedicated Outdoor Air Low Setpoint Temperature for Design {C}
  autosize,                               !- Dedicated Outdoor Air High Setpoint Temperature for Design {C}
  Sensible Load Only No Latent Load,      !- Zone Load Sizing Method
  HumidityRatioDifference,                !- Zone Latent Cooling Design Supply Air Humidity Ratio Input Method
  ,                                       !- Zone Dehumidification Design Supply Air Humidity Ratio {kgWater/kgDryAir}
  0.005,                                  !- Zone Cooling Design Supply Air Humidity Ratio Difference {kgWater/kgDryAir}
  HumidityRatioDifference,                !- Zone Latent Heating Design Supply Air Humidity Ratio Input Method
  ,                                       !- Zone Humidification Design Supply Air Humidity Ratio {kgWater/kgDryAir}
  0.005,                                  !- Zone Humidification Design Supply Air Humidity Ratio Difference {kgWater/kgDryAir}
  ,                                       !- Zone Humidistat Dehumidification Set Point Schedule Name
  ,                                       !- Zone Humidistat Humidification Set Point Schedule Name
  ,                                       !- Design Zone Air Distribution Effectiveness in Cooling Mode
  ,                                       !- Design Zone Air Distribution Effectiveness in Heating Mode
  ,                                       !- Design Zone Secondary Recirculation Fraction {dimensionless}
  ,                                       !- Design Minimum Zone Ventilation Efficiency {dimensionless}
  Coincident;                             !- Sizing Option

OS:ZoneHVAC:EquipmentList,
  {1d22f094-6540-4156-a8c8-d20198c5b2b7}, !- Handle
  Zone HVAC Equipment List 2,             !- Name
  {91b5a87f-0e56-4eff-8f6d-deb0cd5844e6}; !- Thermal Zone

OS:AdditionalProperties,
  {aa3d8040-facb-44ce-a29c-3e8144764551}, !- Handle
  {91b5a87f-0e56-4eff-8f6d-deb0cd5844e6}, !- Object Name
  ObjectType,                             !- Feature Name 1
  String,                                 !- Feature Data Type 1
  attic - vented;                         !- Feature Value 1

OS:Space,
  {906fc67d-0628-4030-bcf8-095a9c16734b}, !- Handle
  attic - vented 1,                       !- Name
  ,                                       !- Space Type Name
  ,                                       !- Default Construction Set Name
  ,                                       !- Default Schedule Set Name
  ,                                       !- Direction of Relative North {deg}
  ,                                       !- X Origin {m}
  ,                                       !- Y Origin {m}
  ,                                       !- Z Origin {m}
  ,                                       !- Building Story Name
  {91b5a87f-0e56-4eff-8f6d-deb0cd5844e6}, !- Thermal Zone Name
  ,                                       !- Part of Total Floor Area
  ,                                       !- Design Specification Outdoor Air Object Name
  ,                                       !- Building Unit Name
  356.390921899745;                       !- Volume {m3}

OS:Material,
  {c0aa6889-e887-4242-bf87-0bca2fbf621e}, !- Handle
  asphalt or fiberglass shingles,         !- Name