
OS:Version,
  {4fc9786a-c73b-4384-99c1-9a996879ea71}, !- Handle
  3.10.0;                                 !- Version Identifier

OS:SimulationControl,
  {cbb1221d-3163-414c-af73-c0e2e1535984}, !- Handle
  ,                                       !- Do Zone Sizing Calculation
  ,                                       !- Do System Sizing Calculation
  ,                                       !- Do Plant Sizing Calculation
  No;                                     !- Run Simulation for Sizing Periods

OS:Timestep,
  {5ae668a6-ae54-4f49-bfaf-8e53f6f87f54}, !- Handle
  1;                                      !- Number of Timesteps per Hour

OS:ShadowCalculation,
  {71d58389-ed8d-46d1-8c24-9507abf3b02f}, !- Handle
  PolygonClipping,                        !- Shading Calculation Method
  ,                                       !- Shading Calculation Update Frequency Method
  20,                                     !- Shading Calculation Update Frequency
  200,                                    !- Maximum Figures in Shadow Overlap Calculations
  ,                                       !- Polygon Clipping Algorithm
  512,                                    !- Pixel Counting Resolution
  ,                                       !- Sky Diffuse Modeling Algorithm
  No,                                     !- Output External Shading Calculation Results
  No,                                     !- Disable Self-Shading Within Shading Zone Groups
  No;                                     !- Disable Self-Shading From Shading Zone Groups to Other Zones

OS:SurfaceConvectionAlgorithm:Outside,
  {473e3877-3b03-404d-9c7f-b7d6a65c90ee}, !- Handle
  DOE-2;                                  !- Algorithm

OS:SurfaceConvectionAlgorithm:Inside,
  {1c480865-54fe-4f78-8238-1b43ee37829b}, !- Handle
  TARP;                                   !- Algorithm

OS:ZoneCapacitanceMultiplier:ResearchSpecial,
  {08eede0d-da15-4c37-93aa-b4aab2d150b4}, !- Handle
  7,                                      !- Temperature Capacity Multiplier
  15,                                     !- Humidity Capacity Multiplier
  ;                                       !- Carbon Dioxide Capacity Multiplier

OS:ConvergenceLimits,
  {ee2370fc-5532-4a4e-b1e7-2401f2d91828}, !- Handle
  0;                                      !- Minimum System Timestep {minutes}

OS:RunPeriod,
  {ae8bf6d9-729b-412e-9a81-1e6a0952d0ba}, !- Handle
  Run Period 1,                           !- Name
  1,                                      !- Begin Month
  1,                                      !- Begin Day of Month
  12,                                     !- End Month
  31,                                     !- End Day of Month
  ,                                       !- Use Weather File Holidays and Special Days
  ,                                       !- Use Weather File Daylight Saving Period
  ,                                       !- Apply Weekend Holiday Rule
  ,                                       !- Use Weather File Rain Indicators
  ,                                       !- Use Weather File Snow Indicators
  ;                                       !- Number of Times Runperiod to be Repeated

OS:PerformancePrecisionTradeoffs,
  {45dbc762-cf36-4a89-bde2-e998d329fbe5}, !- Handle
  ,                                       !- Use Coil Direct Solutions
  CarrollMRT;                             !- Zone Radiant Exchange Algorithm

OS:WeatherFile,
  {b1151456-5dee-48fd-a13e-e96b45cd5a6a}, !- Handle
  Buffalo Niagara Intl Ap,                !- City
  NY,                                     !- State Province Region
  USA,                                    !- Country
  TMY3,                                   !- Data Source
  725280,                                 !- WMO Number
  42.93,                                  !- Latitude {deg}
  -78.73,                                 !- Longitude {deg}
  -5,                                     !- Time Zone {hr}
  215,                                    !- Elevation {m}
  /Users/nmoore/github/urbanopt-example-geojson-project/example_project/weather/USA_NY_Buffalo-Greater.Buffalo.Intl.AP.725280_TMY3.epw, !- Url
  6B50E0FF,                               !- Checksum
  ,                                       !- Start Date Actual Year
  Sunday;                                 !- Start Day of Week

OS:YearDescription,
  {0ba58465-d55f-4d0e-aa2b-29150d63ab70}, !- Handle
  2007,                                   !- Calendar Year
  ,                                       !- Day of Week for Start Day
  ;                                       !- Is Leap Year

OS:Site,
  {c267db2f-6885-448a-973e-0f1c0064d9d7}, !- Handle
  Buffalo Niagara Intl Ap_NY,             !- Name
  42.93,                                  !- Latitude {deg}
  -78.73,                                 !- Longitude {deg}
  -5,                                     !- Time Zone {hr}
  215,                                    !- Elevation {m}
  Suburbs,                                !- Terrain
  Yes;                                    !- Keep Site Location Information

OS:RunPeriodControl:DaylightSavingTime,
  {bced73f9-ea62-4b08-9d6a-3b87c9464353}, !- Handle
  Mar 12,                                 !- Start Date
  Nov 5;                                  !- End Date

OS:Site:GroundTemperature:Shallow,
  {3e8f28b1-261e-45e8-936a-03588e3d64d4}, !- Handle
  4.30207395723828,                       !- January Surface Ground Temperature {C}
  2.29327249652502,                       !- February Surface Ground Temperature {C}
  2.13240047156047,                       !- March Surface Ground Temperature {C}
  3.08567940719286,                       !- April Surface Ground Temperature {C}
  6.91256312497526,                       !- May Surface Ground Temperature {C}
  10.7216195949507,                       !- June Surface Ground Temperature {C}
  14.0238679822574,                       !- July Surface Ground Temperature {C}
  16.1157611184724,                       !- August Surface Ground Temperature {C}
  16.2934789303462,                       !- September Surface Ground Temperature {C}
  14.5920754632847,                       !- October Surface Ground Temperature {C}
  11.374036348653,                        !- November Surface Ground Temperature {C}
  7.68182621661674;                       !- December Surface Ground Temperature {C}

OS:ThermalZone,
  {97671c17-57c3-4ed6-8697-0d07317b98b9}, !- Handle
  conditioned space,                      !- Name
  1,                                      !- Multiplier
  ,                                       !- Ceiling Height {m}
  346.03186535424,                        !- Volume {m3}
  ,                                       !- Floor Area {m2}
  ,                                       !- Zone Inside Convection Algorithm
  ,                                       !- Zone Outside Convection Algorithm
  ,                                       !- Zone Conditioning Equipment List Name
  {f4499f1c-c516-4a5d-8275-2290df2218d4}, !- Zone Air Inlet Port List
  {92edbc6e-b4ca-4c71-a228-cb9d7c245fd5}, !- Zone Air Exhaust Port List
  {f86ba5f5-4a9a-4031-a861-3ae0f4e5b184}, !- Zone Air Node Name
  {ee9329eb-14d6-4e4b-8c91-416e8ff5a255}, !- Zone Return Air Port List
  ,                                       !- Primary Daylighting Control Name
  ,                                       !- Fraction of Zone Controlled by Primary Daylighting Control
  ,                                       !- Secondary Daylighting Control Name
  ,                                       !- Fraction of Zone Controlled by Secondary Daylighting Control
  ,                                       !- Illuminance Map Name
  ,                                       !- Group Rendering Name
  {c6b0f55a-b6a6-4035-8080-b3867f7e7cf8}, !- Thermostat Name
  No;                                     !- Use Ideal Air Loads

OS:Node,
  {849b7e29-fb3f-4a76-91d6-ecfdbaa4cf85}, !- Handle
  Node 1,                                 !- Name
  {f86ba5f5-4a9a-4031-a861-3ae0f4e5b184}, !- Inlet Port
  ;                                       !- Outlet Port

OS:Connection,
  {f86ba5f5-4a9a-4031-a861-3ae0f4e5b184}, !- Handle
  {97671c17-57c3-4ed6-8697-0d07317b98b9}, !- Source Object
  11,                                     !- Outlet Port
  {849b7e29-fb3f-4a76-91d6-ecfdbaa4cf85}, !- Target Object
  2;                                      !- Inlet Port

OS:PortList,
  {f4499f1c-c516-4a5d-8275-2290df2218d4}, !- Handle
  {97671c17-57c3-4ed6-8697-0d07317b98b9}, !- HVAC Component
  {4cafe834-a4dc-42f9-a958-7c2dd2956ec8}; !- Port 1

OS:PortList,
  {92edbc6e-b4ca-4c71-a228-cb9d7c245fd5}, !- Handle
  {97671c17-57c3-4ed6-8697-0d07317b98b9}; !- HVAC Component

OS:PortList,
  {ee9329eb-14d6-4e4b-8c91-416e8ff5a255}, !- Handle
  {97671c17-57c3-4ed6-8697-0d07317b98b9}, !- HVAC Component
  {ed70a49b-e22c-4dfa-8eb4-990b34f82a97}; !- Port 1

OS:Sizing:Zone,
  {1a75465e-c449-4196-bf8d-da4d18049467}, !- Handle
  {97671c17-57c3-4ed6-8697-0d07317b98b9}, !- Zone or ZoneList Name
  SupplyAirTemperature,                   !- Zone Cooling Design Supply Air Temperature Input Method
  14,                                     !- Zone Cooling Design Supply Air Temperature {C}
  11.11,                                  !- Zone Cooling Design Supply Air Temperature Difference {deltaC}
  SupplyAirTemperature,                   !- Zone Heating Design Supply Air Temperature Input Method
  40,                                     !- Zone Heating Design Supply Air Temperature {C}
  11.11,                                  !- Zone Heating Design Supply Air Temperature Difference {deltaC}
  0.0085,                                 !- Zone Cooling Design Supply Air Humidity Ratio {kg-H2O/kg-air}
  0.008,                                  !- Zone Heating Design Supply Air Humidity Ratio {kg-H2O/kg-air}
  ,                                       !- Zone Heating Sizing Factor
  ,                                       !- Zone Cooling Sizing Factor
  DesignDay,                              !- Cooling Design Air Flow Method
  ,                                       !- Cooling Design Air Flow Rate {m3/s}
  ,                                       !- Cooling Minimum Air Flow per Zone Floor Area {m3/s-m2}
  ,                                       !- Cooling Minimum Air Flow {m3/s}
  ,                                       !- Cooling Minimum Air Flow Fraction
  DesignDay,                              !- Heating Design Air Flow Method
  ,                                       !- Heating Design Air Flow Rate {m3/s}
  ,                                       !- Heating Maximum Air Flow per Zone Floor Area {m3/s-m2}
  ,                                       !- Heating Maximum Air Flow {m3/s}
  ,                                       !- Heating Maximum Air Flow Fraction
  No,                                     !- Account for Dedicated Outdoor Air System
  NeutralSupplyAir,                       !- Dedicated Outdoor Air System Control Strategy
  autosize,                               !- Dedicated Outdoor Air Low Setpoint Temperature for Design {C}
  autosize,                               !- Dedicated Outdoor Air High Setpoint Temperature for Design {C}
  Sensible Load Only No Latent Load,      !- Zone Load Sizing Method
  HumidityRatioDifference,                !- Zone Latent Cooling Design Supply Air Humidity Ratio Input Method
  ,                                       !- Zone Dehumidification Design Supply Air Humidity Ratio {kgWater/kgDryAir}
  0.005,                                  !- Zone Cooling Design Supply Air Humidity Ratio Difference {kgWater/kgDryAir}
  HumidityRatioDifference,                !- Zone Latent Heating Design Supply Air Humidity Ratio Input Method
  ,                                       !- Zone Humidification Design Supply Air Humidity Ratio {kgWater/kgDryAir}
  0.005,                                  !- Zone Humidification Design Supply Air Humidity Ratio Difference {kgWater/kgDryAir}
  ,                                       !- Zone Humidistat Dehumidification Set Point Schedule Name
  ,                                       !- Zone Humidistat Humidification Set Point Schedule Name
  ,                                       !- Design Zone Air Distribution Effectiveness in Cooling Mode
  ,                                       !- Design Zone Air Distribution Effectiveness in Heating Mode
  ,                                       !- Design Zone Secondary Recirculation Fraction {dimensionless}
  ,                                       !- Design Minimum Zone Ventilation Efficiency {dimensionless}
  Coincident;                             !- Sizing Option

OS:ZoneHVAC:EquipmentList,
  {bda8e894-3267-4a1f-9d41-932071e1819d}, !- Handle
  Zone HVAC Equipment List 1,             !- Name
  {97671c17-57c3-4ed6-8697-0d07317b98b9}, !- Thermal Zone
  ,                                       !- Load Distribution Scheme
  {2bfcb4f2-3d16-45d9-9209-1d126cf8583d}, !- Zone Equipment 1
  1,                                      !- Zone Equipment Cooling Sequence 1
  1,                                      !- Zone Equipment Heating or No-Load Sequence 1
  {42a09a12-afa6-4194-a15d-72570d25eb40}, !- Zone Equipment Sequential Cooling Fraction Schedule Name 1
  {d054ade9-905b-4ab8-809b-488464aebe15}; !- Zone Equipment Sequential Heating Fraction Schedule Name 1

OS:AdditionalProperties,
  {9bc27bf0-00c4-473a-90c4-d3be09166723}, !- Handle
  {97671c17-57c3-4ed6-8697-0d07317b98b9}, !- Object Name
  ObjectType,                             !- Feature Name 1
  String,                                 !- Feature Data Type 1
  conditioned space;                      !- Feature Value 1

OS:Space,
  {8a6423d0-6f4b-4067-a1e4-df16832ed50c}, !- Handle
  conditioned space 1,                    !- Name
  ,                                       !- Space Type Name
  ,                                       !- Default Construction Set Name
  ,                                       !- Default Schedule Set Name
  ,                                       !- Direction of Relative North {deg}
  ,                                       !- X Origin {m}
  ,                                       !- Y Origin {m}
  ,                                       !- Z Origin {m}
  ,                                       !- Building Story Name
  {97671c17-57c3-4ed6-8697-0d07317b98b9}, !- Thermal Zone Name
  ,                                       !- Part of Total Floor Area
  ,                                       !- Design Specification Outdoor Air Object Name
  ,                                       !- Building Unit Name
  346.03186535424;                        !- Volume {m3}

OS:Schedule:Ruleset,
  {3c6f5f3f-d56b-491e-9544-52f2ea4d5913}, !- Handle
  heating setpoint,                       !- Name
  {73ca313c-e8d0-4ce5-b7ca-4a3b3ada3a5e}, !- Schedule Type Limits Name
  {25d1524b-451e-4fbd-948d-4f60fe353d60}; !- Default Day Schedule Name

OS:Schedule:Day,
  {25d1524b-451e-4fbd-948d-4f60fe353d60}, !- Handle
  heating setpoint default day,           !- Name
  {73ca313c-e8d0-4ce5-b7ca-4a3b3ada3a5e}, !- Schedule Type Limits Name
  ,                                       !- Interpolate to Timestep
  24,                                     !- Hour 1
  0,                                      !- Minute 1
  0;                                      !- Value Until Time 1

OS:Schedule:Rule,
  {30235cc3-e791-42a4-b383-165a08b2d9ec}, !- Handle
  heating setpoint allday rule,           !- Name
  {3c6f5f3f-d56b-491e-9544-52f2ea4d5913}, !- Schedule Ruleset Name
  0,                                      !- Rule Order
  {5b64e0e5-bdfe-46b1-837c-f9fd31dc05e0}, !- Day Schedule Name
  Yes,                                    !- Apply Sunday
  Yes,                                    !- Apply Monday
  Yes,                                    !- Apply Tuesday
  Yes,                                    !- Apply Wednesday
  Yes,                                    !- Apply Thursday
  Yes,                                    !- Apply Friday
  Yes,                                    !- Apply Saturday
  DateRange,                              !- Date Specification Type
  1,                                      !- Start Month
  1,                                      !- Start Day
  12,                                     !- End Month
  31;                                     !- End Day

OS:Schedule:Day,
  {5b64e0e5-bdfe-46b1-837c-f9fd31dc05e0}, !- Handle
  heating setpoint day,                   !- Name
  {73ca313c-e8d0-4ce5-b7ca-4a3b3ada3a5e}, !- Schedule Type Limits Name
  ,                                       !- Interpolate to Timestep
  24,                                     !- Hour 1
  0,                                      !- Minute 1
  20;                                     !- Value Until Time 1

OS:Schedule:Ruleset,
  {cbafd9fa-ce3e-4513-b8f6-d4a5236f1817}, !- Handle
  cooling setpoint,                       !- Name
  {73ca313c-e8d0-4ce5-b7ca-4a3b3ada3a5e}, !- Schedule Type Limits Name
  {f909f1f4-05ed-4d0e-8266-483ecb08aa13}; !- Default Day Schedule Name

OS:Schedule:Day,
  {f909f1f4-05ed-4d0e-8266-483ecb08aa13}, !- Handle
  cooling setpoint default day,           !- Name
  {73ca313c-e8d0-4ce5-b7ca-4a3b3ada3a5e}, !- Schedule Type Limits Name
  ,                                       !- Interpolate to Timestep
  24,                                     !- Hour 1
  0,                                      !- Minute 1
  0;                                      !- Value Until Time 1

OS:Schedule:Rule,
  {8a7c4c51-e3d7-419a-959c-09cba87ab848}, !- Handle
  cooling setpoint allday rule,           !- Name
  {cbafd9fa-ce3e-4513-b8f6-d4a5236f1817}, !- Schedule Ruleset Name
  0,                                      !- Rule Order
  {a811e29a-31f3-4e9a-ba42-a54f9f272399}, !- Day Schedule Name
  Yes,                                    !- Apply Sunday
  Yes,                                    !- Apply Monday
  Yes,                                    !- Apply Tuesday
  Yes,                                    !- Apply Wednesday
  Yes,                                    !- Apply Thursday
  Yes,                                    !- Apply Friday
  Yes,                                    !- Apply Saturday
  DateRange,                              !- Date Specification Type
  1,                                      !- Start Month
  1,                                      !- Start Day
  12,                                     !- End Month
  31;                                     !- End Day

OS:Schedule:Day,
  {a811e29a-31f3-4e9a-ba42-a54f9f272399}, !- Handle
  cooling setpoint day,                   !- Name
  {73ca313c-e8d0-4ce5-b7ca-4a3b3ada3a5e}, !- Schedule Type Limits Name
  ,                                       !- Interpolate to Timestep
  24,                                     !- Hour 1
  0,                                      !- Minute 1
  25.5555555555556;                       !- Value Until Time 1

OS:ThermostatSetpoint:DualSetpoint,
  {c6b0f55a-b6a6-4035-8080-b3867f7e7cf8}, !- Handle
  conditioned space temperature setpoint, !- Name
  {3c6f5f3f-d56b-491e-9544-52f2ea4d5913}, !- Heating Setpoint Temperature Schedule Name
  {cbafd9fa-ce3e-4513-b8f6-d4a5236f1817}, !- Cooling Setpoint Temperature Schedule Name
  0;                                      !- Temperature Difference Between Cutout And Setpoint {deltaC}

OS:ScheduleTypeLimits,
  {73ca313c-e8d0-4ce5-b7ca-4a3b3ada3a5e}, !- Handle
  Temperature,                            !- Name
  ,                                       !- Lower Limit Value
  ,                                       !- Upper Limit Value
  Continuous,                             !- Numeric Type
  Temperature;                            !- Unit Type

OS:Surface,
  {4273ef71-7d84-4bd1-a5e8-eb8fc0005aa2}, !- Handle
  Roof1,                                  !- Name
  RoofCeiling,                            !- Surface Type
  {6759611b-5cd0-478c-bf7e-20788b79a2b5}, !- Construction Name
  {8a6423d0-6f4b-4067-a1e4-df16832ed50c}, !- Space Name
  Outdoors,                               !- Outside Boundary Condition
  ,                                       !- Outside Boundary Condition Object
  SunExposed,                             !- Sun Exposure
  WindExposed,                            !- Wind Exposure
  ,                                       !- View Factor to Ground
  ,                                       !- Number of Vertices
  -5.95628646053898, 5.95628646053898, 2.4384, !- X,Y,Z Vertex 1 {m}
  -5.95628646053898, -5.95628646053898, 2.4384, !- X,Y,Z Vertex 2 {m}
  5.95628646053898, -5.95628646053898, 2.4384, !- X,Y,Z Vertex 3 {m}
  5.95628646053898, 5.95628646053898, 2.4384; !- X,Y,Z Vertex 4 {m}

OS:AdditionalProperties,
  {85847605-c7fa-4f52-9fff-194adaafe269}, !- Handle
  {4273ef71-7d84-4bd1-a5e8-eb8fc0005aa2}, !- Object Name
  Length,                                 !- Feature Name 1
  Double,                                 !- Feature Data Type 1
  39.083244491725608,                     !- Feature Value 1
  Width,                                  !- Feature Name 2
  Double,                                 !- Feature Data Type 2
  39.083244491725608,                     !- Feature Value 2
  Azimuth,                                !- Feature Name 3
  Integer,                                !- Feature Data Type 3
  0,                                      !- Feature Value 3
  Tilt,                                   !- Feature Name 4
  Double,                                 !- Feature Data Type 4
  0,                                      !- Feature Value 4
  SurfaceType,                            !- Feature Name 5
  String,                                 !- Feature Data Type 5
  Roof;                                   !- Feature Value 5

OS:Material,
  {706594ea-8d59-40fc-8993-578ce943694b}, !- Handle
  asphalt or fiberglass shingles,         !- Name
  Rough,                                  !- Roughness
  0.00635,                                !- Thickness {m}
  0.162714,                               !- Conductivity {W/m-K}
  1121.4,                                 !- Density {kg/m3}
  1465.45,                                !- Specific Heat {J/kg-K}
  0.9,                                    !- Thermal Absorptance
  0.85,                                   !- Solar Absorptance
  0.85;                                   !- Visible Absorptance

OS:Material,
  {af35d15a-3134-4b94-b344-cc481e8c698f}, !- Handle
  roof stud and cavity,                   !- Name
  Rough,                                  !- Roughness
  0.0889,                                 !- Thickness {m}
  0.491900632004487,                      !- Conductivity {W/m-K}
  50.32683,                               !- Density {kg/m3}
  1063.80987585548,                       !- Specific Heat {J/kg-K}
  0.9,                                    !- Thermal Absorptance
  0.7,                                    !- Solar Absorptance
  0.7;                                    !- Visible Absorptance

OS:Material,
  {9aebe2ef-6bbc-4f9f-8717-8ab6999f4c2c}, !- Handle
  gypsum board,                           !- Name
  Rough,                                  !- Roughness
  0.00254,                                !- Thickness {m}
  0.1602906,                              !- Conductivity {W/m-K}
  801,                                    !- Density {kg/m3}
  837.4,                                  !- Specific Heat {J/kg-K}
  0.9,                                    !- Thermal Absorptance
  0.6,                                    !- Solar Absorptance
  0.6;                                    !- Visible Absorptance

OS:Construction,
  {6759611b-5cd0-478c-bf7e-20788b79a2b5}, !- Handle
  Roof1 construction,                     !- Name
  ,                                       !- Surface Rendering Name
  {706594ea-8d59-40fc-8993-578ce943694b}, !- Layer 1
  {af35d15a-3134-4b94-b344-cc481e8c698f}, !- Layer 2
  {9aebe2ef-6bbc-4f9f-8717-8ab6999f4c2c}; !- Layer 3

OS:Surface,
  {6fcd0acd-a63d-4032-ad74-5c35477302ee}, !- Handle
  Wall1,                                  !- Name
  Wall,                                   !- Surface Type
  {1edc96e2-930b-452c-89f7-465323ddbab5}, !- Construction Name
  {8a6423d0-6f4b-4067-a1e4-df16832ed50c}, !- Space Name
  Outdoors,                               !- Outside Boundary Condition
  ,                                       !- Outside Boundary Condition Object
  SunExposed,                             !- Sun Exposure
  WindExposed,                            !- Wind Exposure
  ,                                       !- View Factor to Ground
  ,                                       !- Number of Vertices
  -29.479875, 30.4089054, 0,              !- X,Y,Z Vertex 1 {m}
  -29.479875, 30.4089054, 4.8768,         !- X,Y,Z Vertex 2 {m}
  -21.055965, 30.4089054, 4.8768,         !- X,Y,Z Vertex 3 {m}
  -21.055965, 30.4089054, 0;              !- X,Y,Z Vertex 4 {m}

OS:AdditionalProperties,
  {5546787e-c979-45ba-a103-58da8c5f4419}, !- Handle
  {6fcd0acd-a63d-4032-ad74-5c35477302ee}, !- Object Name
  Length,                                 !- Feature Name 1
  Double,                                 !- Feature Data Type 1
  27.637499999999999,                     !- Feature Value 1
  Azimuth,                                !- Feature Name 2
  Integer,                                !- Feature Data Type 2
  0,                                      !- Feature Value 2
  Tilt,                                   !- Feature Name 3
  Double,                                 !- Feature Data Type 3
  90,                                     !- Feature Value 3
  SurfaceType,                            !- Feature Name 4
  String,                                 !- Feature Data Type 4
  Wall;                                   !- Feature Value 4

OS:Material,
  {1147751c-8bc4-4fa9-bdbb-60dd7ac24105}, !- Handle
  wood siding,                            !- Name
  Rough,                                  !- Roughness
  0.0254,                                 !- Thickness {m}
  0.1024175,                              !- Conductivity {W/m-K}
  544.68,                                 !- Density {kg/m3}
  1172.36,                                !- Specific Heat {J/kg-K}
  0.9,                                    !- Thermal Absorptance
  0.7,                                    !- Solar Absorptance
  0.7;                                    !- Visible Absorptance

OS:Material,
  {16b83650-b680-4536-b2ff-6611f47e7d9d}, !- Handle
  osb sheathing 0.5 in.,                  !- Name
  Rough,                                  !- Roughness
  0.0127,                                 !- Thickness {m}
  0.1154577,                              !- Conductivity {W/m-K}
  512.64,                                 !- Density {kg/m3}
  1214.23,                                !- Specific Heat {J/kg-K}
  0.9,                                    !- Thermal Absorptance
  0.7,                                    !- Solar Absorptance
  0.7;                                    !- Visible Absorptance

OS:Material,
  {07cbe9b0-360e-44d8-acd4-84fd1cb37d15}, !- Handle
  wall stud and cavity,                   !- Name
  Rough,                                  !- Roughness
  0.1397,                                 !- Thickness {m}
  0.0929021674204099,                     !- Conductivity {W/m-K}
  139.0536,                               !- Density {kg/m3}
  1170.23755760369,                       !- Specific Heat {J/kg-K}
  0.9,                                    !- Thermal Absorptance
  0.7,                                    !- Solar Absorptance
  0.7;                                    !- Visible Absorptance

OS:Material,
  {1883cd5f-5fc8-4448-8e5e-67ca0764bf9c}, !- Handle
  gypsum board 1,                         !- Name
  Rough,                                  !- Roughness
  0.0127,                                 !- Thickness {m}
  0.1602906,                              !- Conductivity {W/m-K}
  801,                                    !- Density {kg/m3}
  837.4,                                  !- Specific Heat {J/kg-K}
  0.9,                                    !- Thermal Absorptance
  0.6,                                    !- Solar Absorptance
  0.6;                                    !- Visible Absorptance

OS:Construction,
  {1edc96e2-930b-452c-89f7-465323ddbab5}, !- Handle
  Wall1 construction,                     !- Name
  ,                                       !- Surface Rendering Name
  {1147751c-8bc4-4fa9-bdbb-60dd7ac24105}, !- Layer 1
  {16b83650-b680-4536-b2ff-6611f47e7d9d}, !- Layer 2
  {07cbe9b0-360e-44d8-acd4-84fd1cb37d15}, !- Layer 3
  {1883cd5f-5fc8-4448-8e5e-67ca0764bf9c}; !- Layer 4

OS:Surface,
  {c00d3465-b091-4d5f-b602-37995d03db01}, !- Handle
  Wall2,                                  !- Name
  Wall,                                   !- Surface Type
  {55c7d4b1-dcb3-4d22-bc73-36cd86bfec24}, !- Construction Name
  {8a6423d0-6f4b-4067-a1e4-df16832ed50c}, !- Space Name
  Outdoors,                               !- Outside Boundary Condition
  ,                                       !- Outside Boundary Condition Object
  SunExposed,                             !- Sun Exposure
  WindExposed,                            !- Wind Exposure
  ,                                       !- View Factor to Ground
  ,                                       !- Number of Vertices
  30.4089054, -26.1969504, 0,             !- X,Y,Z Vertex 1 {m}
  30.4089054, -26.1969504, 4.8768,        !- X,Y,Z Vertex 2 {m}
  30.4089054, -30.4089054, 4.8768,        !- X,Y,Z Vertex 3 {m}
  30.4089054, -30.4089054, 0;             !- X,Y,Z Vertex 4 {m}

OS:AdditionalProperties,
  {8e5516fe-9797-4b93-b71c-430bf9e22aac}, !- Handle
  {c00d3465-b091-4d5f-b602-37995d03db01}, !- Object Name
  Length,                                 !- Feature Name 1
  Double,                                 !- Feature Data Type 1
  13.81875,                               !- Feature Value 1
  Azimuth,                                !- Feature Name 2