
OS:Version,
  {fc714c2d-e58e-45e8-81a0-e957fbc38d72}, !- Handle
  3.9.0;                                  !- Version Identifier

OS:SimulationControl,
  {49103a3b-9df8-4c7f-8465-459a80782ec2}, !- Handle
  ,                                       !- Do Zone Sizing Calculation
  ,                                       !- Do System Sizing Calculation
  ,                                       !- Do Plant Sizing Calculation
  No;                                     !- Run Simulation for Sizing Periods

OS:Timestep,
  {94f505ab-d37c-4d8b-91ef-27783794e6b9}, !- Handle
  1;                                      !- Number of Timesteps per Hour

OS:ShadowCalculation,
  {e0a5953b-eb55-47f2-b09c-5385b79dfce3}, !- Handle
  PolygonClipping,                        !- Shading Calculation Method
  ,                                       !- Shading Calculation Update Frequency Method
  20,                                     !- Shading Calculation Update Frequency
  200,                                    !- Maximum Figures in Shadow Overlap Calculations
  ,                                       !- Polygon Clipping Algorithm
  512,                                    !- Pixel Counting Resolution
  ,                                       !- Sky Diffuse Modeling Algorithm
  No,                                     !- Output External Shading Calculation Results
  No,                                     !- Disable Self-Shading Within Shading Zone Groups
  No;                                     !- Disable Self-Shading From Shading Zone Groups to Other Zones

OS:SurfaceConvectionAlgorithm:Outside,
  {ce8d2555-26aa-49dc-8aa9-e8766d2776c4}, !- Handle
  DOE-2;                                  !- Algorithm

OS:SurfaceConvectionAlgorithm:Inside,
  {33f31688-d767-408b-997a-57fba60774b6}, !- Handle
  TARP;                                   !- Algorithm

OS:ZoneCapacitanceMultiplier:ResearchSpecial,
  {9cf848f1-6ac5-4f3e-877c-b133c273511c}, !- Handle
  7,                                      !- Temperature Capacity Multiplier
  15,                                     !- Humidity Capacity Multiplier
  ;                                       !- Carbon Dioxide Capacity Multiplier

OS:ConvergenceLimits,
  {bee42504-75f4-42e6-8685-6f891bc521ab}, !- Handle
  0;                                      !- Minimum System Timestep {minutes}

OS:RunPeriod,
  {acee2208-087b-4130-80c2-fbbc1ba3d449}, !- Handle
  Run Period 1,                           !- Name
  1,                                      !- Begin Month
  1,                                      !- Begin Day of Month
  12,                                     !- End Month
  31,                                     !- End Day of Month
  ,                                       !- Use Weather File Holidays and Special Days
  ,                                       !- Use Weather File Daylight Saving Period
  ,                                       !- Apply Weekend Holiday Rule
  ,                                       !- Use Weather File Rain Indicators
  ,                                       !- Use Weather File Snow Indicators
  ;                                       !- Number of Times Runperiod to be Repeated

OS:PerformancePrecisionTradeoffs,
  {5d0a9114-1e78-41dc-9fc0-177979a83951}, !- Handle
  ,                                       !- Use Coil Direct Solutions
  CarrollMRT;                             !- Zone Radiant Exchange Algorithm

OS:WeatherFile,
  {3f580948-793c-4d43-a11f-1c6c835bc068}, !- Handle
  Buffalo Niagara Intl Ap,                !- City
  NY,                                     !- State Province Region
  USA,                                    !- Country
  TMY3,                                   !- Data Source
  725280,                                 !- WMO Number
  42.93,                                  !- Latitude {deg}
  -78.73,                                 !- Longitude {deg}
  -5,                                     !- Time Zone {hr}
  215,                                    !- Elevation {m}
  /Users/nmoore/github/urbanopt-example-geojson-project/example_project/weather/USA_NY_Buffalo-Greater.Buffalo.Intl.AP.725280_TMY3.epw, !- Url
  6B50E0FF,                               !- Checksum
  ,                                       !- Start Date Actual Year
  Sunday;                                 !- Start Day of Week

OS:YearDescription,
  {f03134f6-0659-4f72-93de-1b2d08bb3553}, !- Handle
  2007,                                   !- Calendar Year
  ,                                       !- Day of Week for Start Day
  ;                                       !- Is Leap Year

OS:Site,
  {1fc12219-2941-4e87-9996-030225a6a862}, !- Handle
  Buffalo Niagara Intl Ap_NY,             !- Name
  42.93,                                  !- Latitude {deg}
  -78.73,                                 !- Longitude {deg}
  -5,                                     !- Time Zone {hr}
  215,                                    !- Elevation {m}
  Suburbs,                                !- Terrain
  Yes;                                    !- Keep Site Location Information

OS:RunPeriodControl:DaylightSavingTime,
  {0211ad0e-3b19-4edf-a213-d0b343beaea9}, !- Handle
  Mar 12,                                 !- Start Date
  Nov 5;                                  !- End Date

OS:Site:GroundTemperature:Shallow,
  {d4561533-000d-427a-bee0-895bdcfca343}, !- Handle
  4.30207395723828,                       !- January Surface Ground Temperature {C}
  2.29327249652502,                       !- February Surface Ground Temperature {C}
  2.13240047156047,                       !- March Surface Ground Temperature {C}
  3.08567940719286,                       !- April Surface Ground Temperature {C}
  6.91256312497526,                       !- May Surface Ground Temperature {C}
  10.7216195949507,                       !- June Surface Ground Temperature {C}
  14.0238679822574,                       !- July Surface Ground Temperature {C}
  16.1157611184724,                       !- August Surface Ground Temperature {C}
  16.2934789303462,                       !- September Surface Ground Temperature {C}
  14.5920754632847,                       !- October Surface Ground Temperature {C}
  11.374036348653,                        !- November Surface Ground Temperature {C}
  7.68182621661674;                       !- December Surface Ground Temperature {C}

OS:ThermalZone,
  {5159db32-170d-4078-8b26-51148e9e222e}, !- Handle
  conditioned space,                      !- Name
  1,                                      !- Multiplier
  ,                                       !- Ceiling Height {m}
  346.03186535424,                        !- Volume {m3}
  ,                                       !- Floor Area {m2}
  ,                                       !- Zone Inside Convection Algorithm
  ,                                       !- Zone Outside Convection Algorithm
  ,                                       !- Zone Conditioning Equipment List Name
  {24167ac4-f173-44ff-a2e1-70669c315275}, !- Zone Air Inlet Port List
  {e5fd738e-ac57-4694-8fd4-e71eca72dcae}, !- Zone Air Exhaust Port List
  {560a9bfe-1f24-4c54-bdcf-b7fd6d526471}, !- Zone Air Node Name
  {be0600ba-f3a1-462e-8d91-d03a394bfbfa}, !- Zone Return Air Port List
  ,                                       !- Primary Daylighting Control Name
  ,                                       !- Fraction of Zone Controlled by Primary Daylighting Control
  ,                                       !- Secondary Daylighting Control Name
  ,                                       !- Fraction of Zone Controlled by Secondary Daylighting Control
  ,                                       !- Illuminance Map Name
  ,                                       !- Group Rendering Name
  {6d3bb87e-fa2e-4c4c-ba62-617e38e79b78}, !- Thermostat Name
  No;                                     !- Use Ideal Air Loads

OS:Node,
  {e447dde8-800d-4450-bdb4-4a3d4675a267}, !- Handle
  Node 1,                                 !- Name
  {560a9bfe-1f24-4c54-bdcf-b7fd6d526471}, !- Inlet Port
  ;                                       !- Outlet Port

OS:Connection,
  {560a9bfe-1f24-4c54-bdcf-b7fd6d526471}, !- Handle
  {5159db32-170d-4078-8b26-51148e9e222e}, !- Source Object
  11,                                     !- Outlet Port
  {e447dde8-800d-4450-bdb4-4a3d4675a267}, !- Target Object
  2;                                      !- Inlet Port

OS:PortList,
  {24167ac4-f173-44ff-a2e1-70669c315275}, !- Handle
  {5159db32-170d-4078-8b26-51148e9e222e}, !- HVAC Component
  {ef1947dd-8509-42c4-b88b-4038c5fabf9f}; !- Port 1

OS:PortList,
  {e5fd738e-ac57-4694-8fd4-e71eca72dcae}, !- Handle
  {5159db32-170d-4078-8b26-51148e9e222e}; !- HVAC Component

OS:PortList,
  {be0600ba-f3a1-462e-8d91-d03a394bfbfa}, !- Handle
  {5159db32-170d-4078-8b26-51148e9e222e}, !- HVAC Component
  {760221ab-ed07-4fb0-ac8d-deb87e2bb2af}; !- Port 1

OS:Sizing:Zone,
  {432df223-f35c-41f0-90f4-2dadc30a96b5}, !- Handle
  {5159db32-170d-4078-8b26-51148e9e222e}, !- Zone or ZoneList Name
  SupplyAirTemperature,                   !- Zone Cooling Design Supply Air Temperature Input Method
  14,                                     !- Zone Cooling Design Supply Air Temperature {C}
  11.11,                                  !- Zone Cooling Design Supply Air Temperature Difference {deltaC}
  SupplyAirTemperature,                   !- Zone Heating Design Supply Air Temperature Input Method
  40,                                     !- Zone Heating Design Supply Air Temperature {C}
  11.11,                                  !- Zone Heating Design Supply Air Temperature Difference {deltaC}
  0.0085,                                 !- Zone Cooling Design Supply Air Humidity Ratio {kg-H2O/kg-air}
  0.008,                                  !- Zone Heating Design Supply Air Humidity Ratio {kg-H2O/kg-air}
  ,                                       !- Zone Heating Sizing Factor
  ,                                       !- Zone Cooling Sizing Factor
  DesignDay,                              !- Cooling Design Air Flow Method
  ,                                       !- Cooling Design Air Flow Rate {m3/s}
  ,                                       !- Cooling Minimum Air Flow per Zone Floor Area {m3/s-m2}
  ,                                       !- Cooling Minimum Air Flow {m3/s}
  ,                                       !- Cooling Minimum Air Flow Fraction
  DesignDay,                              !- Heating Design Air Flow Method
  ,                                       !- Heating Design Air Flow Rate {m3/s}
  ,                                       !- Heating Maximum Air Flow per Zone Floor Area {m3/s-m2}
  ,                                       !- Heating Maximum Air Flow {m3/s}
  ,                                       !- Heating Maximum Air Flow Fraction
  No,                                     !- Account for Dedicated Outdoor Air System
  NeutralSupplyAir,                       !- Dedicated Outdoor Air System Control Strategy
  autosize,                               !- Dedicated Outdoor Air Low Setpoint Temperature for Design {C}
  autosize,                               !- Dedicated Outdoor Air High Setpoint Temperature for Design {C}
  Sensible Load Only No Latent Load,      !- Zone Load Sizing Method
  HumidityRatioDifference,                !- Zone Latent Cooling Design Supply Air Humidity Ratio Input Method
  ,                                       !- Zone Dehumidification Design Supply Air Humidity Ratio {kgWater/kgDryAir}
  0.005,                                  !- Zone Cooling Design Supply Air Humidity Ratio Difference {kgWater/kgDryAir}
  HumidityRatioDifference,                !- Zone Latent Heating Design Supply Air Humidity Ratio Input Method
  ,                                       !- Zone Humidification Design Supply Air Humidity Ratio {kgWater/kgDryAir}
  0.005,                                  !- Zone Humidification Design Supply Air Humidity Ratio Difference {kgWater/kgDryAir}
  ,                                       !- Zone Humidistat Dehumidification Set Point Schedule Name
  ,                                       !- Zone Humidistat Humidification Set Point Schedule Name
  ,                                       !- Design Zone Air Distribution Effectiveness in Cooling Mode
  ,                                       !- Design Zone Air Distribution Effectiveness in Heating Mode
  ,                                       !- Design Zone Secondary Recirculation Fraction {dimensionless}
  ,                                       !- Design Minimum Zone Ventilation Efficiency {dimensionless}
  Coincident;                             !- Sizing Option

OS:ZoneHVAC:EquipmentList,
  {ce64d57e-74bb-4758-8f28-92c55b680126}, !- Handle
  Zone HVAC Equipment List 1,             !- Name
  {5159db32-170d-4078-8b26-51148e9e222e}, !- Thermal Zone
  ,                                       !- Load Distribution Scheme
  {c95cc23e-275a-4319-a68c-9099900fc22e}, !- Zone Equipment 1
  1,                                      !- Zone Equipment Cooling Sequence 1
  1,                                      !- Zone Equipment Heating or No-Load Sequence 1
  {9d26b1ef-fa4d-4e25-b636-aec030c99f4d}, !- Zone Equipment Sequential Cooling Fraction Schedule Name 1
  {9b36f64b-0efc-450b-a1b0-a4040e14ca06}; !- Zone Equipment Sequential Heating Fraction Schedule Name 1

OS:AdditionalProperties,
  {e6e4440e-b2dc-4a9f-9518-2a04884e4cc4}, !- Handle
  {5159db32-170d-4078-8b26-51148e9e222e}, !- Object Name
  ObjectType,                             !- Feature Name 1
  String,                                 !- Feature Data Type 1
  conditioned space;                      !- Feature Value 1

OS:Space,
  {4e46de75-5d1e-4870-920f-7679b47eee46}, !- Handle
  conditioned space 1,                    !- Name
  ,                                       !- Space Type Name
  ,                                       !- Default Construction Set Name
  ,                                       !- Default Schedule Set Name
  ,                                       !- Direction of Relative North {deg}
  ,                                       !- X Origin {m}
  ,                                       !- Y Origin {m}
  ,                                       !- Z Origin {m}
  ,                                       !- Building Story Name
  {5159db32-170d-4078-8b26-51148e9e222e}, !- Thermal Zone Name
  ,                                       !- Part of Total Floor Area
  ,                                       !- Design Specification Outdoor Air Object Name
  ,                                       !- Building Unit Name
  346.03186535424;                        !- Volume {m3}

OS:Schedule:Ruleset,
  {4c19ea8e-ad3b-4d8a-a506-48d8d666e904}, !- Handle
  heating setpoint,                       !- Name
  {40bbad16-c1e2-44af-942f-44ad96fa9dd7}, !- Schedule Type Limits Name
  {22ceae64-25d6-4b51-84ab-3213164c1a26}; !- Default Day Schedule Name

OS:Schedule:Day,
  {22ceae64-25d6-4b51-84ab-3213164c1a26}, !- Handle
  heating setpoint default day,           !- Name
  {40bbad16-c1e2-44af-942f-44ad96fa9dd7}, !- Schedule Type Limits Name
  ,                                       !- Interpolate to Timestep
  24,                                     !- Hour 1
  0,                                      !- Minute 1
  0;                                      !- Value Until Time 1

OS:Schedule:Rule,
  {849e4659-6a91-48e8-87ee-30d4edf5cc2e}, !- Handle
  heating setpoint allday rule,           !- Name
  {4c19ea8e-ad3b-4d8a-a506-48d8d666e904}, !- Schedule Ruleset Name
  0,                                      !- Rule Order
  {74e7701c-a124-4dea-9198-4c688abd81c8}, !- Day Schedule Name
  Yes,                                    !- Apply Sunday
  Yes,                                    !- Apply Monday
  Yes,                                    !- Apply Tuesday
  Yes,                                    !- Apply Wednesday
  Yes,                                    !- Apply Thursday
  Yes,                                    !- Apply Friday
  Yes,                                    !- Apply Saturday
  DateRange,                              !- Date Specification Type
  1,                                      !- Start Month
  1,                                      !- Start Day
  12,                                     !- End Month
  31;                                     !- End Day

OS:Schedule:Day,
  {74e7701c-a124-4dea-9198-4c688abd81c8}, !- Handle
  heating setpoint day,                   !- Name
  {40bbad16-c1e2-44af-942f-44ad96fa9dd7}, !- Schedule Type Limits Name
  ,                                       !- Interpolate to Timestep
  24,                                     !- Hour 1
  0,                                      !- Minute 1
  20;                                     !- Value Until Time 1

OS:Schedule:Ruleset,
  {4ed616b1-30bc-4773-8146-eb4c8bb28a4a}, !- Handle
  cooling setpoint,                       !- Name
  {40bbad16-c1e2-44af-942f-44ad96fa9dd7}, !- Schedule Type Limits Name
  {d317efd9-d51f-4787-924e-609091675156}; !- Default Day Schedule Name

OS:Schedule:Day,
  {d317efd9-d51f-4787-924e-609091675156}, !- Handle
  cooling setpoint default day,           !- Name
  {40bbad16-c1e2-44af-942f-44ad96fa9dd7}, !- Schedule Type Limits Name
  ,                                       !- Interpolate to Timestep
  24,                                     !- Hour 1
  0,                                      !- Minute 1
  0;                                      !- Value Until Time 1

OS:Schedule:Rule,
  {2bfabac4-06db-49b3-a088-ffef4ac20b18}, !- Handle
  cooling setpoint allday rule,           !- Name
  {4ed616b1-30bc-4773-8146-eb4c8bb28a4a}, !- Schedule Ruleset Name
  0,                                      !- Rule Order
  {3de253ed-5acc-4eb4-8697-7cf1ae1ab89e}, !- Day Schedule Name
  Yes,                                    !- Apply Sunday
  Yes,                                    !- Apply Monday
  Yes,                                    !- Apply Tuesday
  Yes,                                    !- Apply Wednesday
  Yes,                                    !- Apply Thursday
  Yes,                                    !- Apply Friday
  Yes,                                    !- Apply Saturday
  DateRange,                              !- Date Specification Type
  1,                                      !- Start Month
  1,                                      !- Start Day
  12,                                     !- End Month
  31;                                     !- End Day

OS:Schedule:Day,
  {3de253ed-5acc-4eb4-8697-7cf1ae1ab89e}, !- Handle
  cooling setpoint day,                   !- Name
  {40bbad16-c1e2-44af-942f-44ad96fa9dd7}, !- Schedule Type Limits Name
  ,                                       !- Interpolate to Timestep
  24,                                     !- Hour 1
  0,                                      !- Minute 1
  25.5555555555556;                       !- Value Until Time 1

OS:ThermostatSetpoint:DualSetpoint,
  {6d3bb87e-fa2e-4c4c-ba62-617e38e79b78}, !- Handle
  conditioned space temperature setpoint, !- Name
  {4c19ea8e-ad3b-4d8a-a506-48d8d666e904}, !- Heating Setpoint Temperature Schedule Name
  {4ed616b1-30bc-4773-8146-eb4c8bb28a4a}, !- Cooling Setpoint Temperature Schedule Name
  0;                                      !- Temperature Difference Between Cutout And Setpoint {deltaC}

OS:ScheduleTypeLimits,
  {40bbad16-c1e2-44af-942f-44ad96fa9dd7}, !- Handle
  Temperature,                            !- Name
  ,                                       !- Lower Limit Value
  ,                                       !- Upper Limit Value
  Continuous,                             !- Numeric Type
  Temperature;                            !- Unit Type

OS:Surface,
  {f851011d-b72e-4f09-b75e-bcfc4c95e585}, !- Handle
  Roof1,                                  !- Name
  RoofCeiling,                            !- Surface Type
  {512ea150-fefb-47c9-8f3e-607017bbb0fb}, !- Construction Name
  {4e46de75-5d1e-4870-920f-7679b47eee46}, !- Space Name
  Outdoors,                               !- Outside Boundary Condition
  ,                                       !- Outside Boundary Condition Object
  SunExposed,                             !- Sun Exposure
  WindExposed,                            !- Wind Exposure
  ,                                       !- View Factor to Ground
  ,                                       !- Number of Vertices
  -5.95628646053898, 5.95628646053898, 2.4384, !- X,Y,Z Vertex 1 {m}
  -5.95628646053898, -5.95628646053898, 2.4384, !- X,Y,Z Vertex 2 {m}
  5.95628646053898, -5.95628646053898, 2.4384, !- X,Y,Z Vertex 3 {m}
  5.95628646053898, 5.95628646053898, 2.4384; !- X,Y,Z Vertex 4 {m}

OS:AdditionalProperties,
  {ccb6e177-9835-42ad-ac2a-8f21eddcbf34}, !- Handle
  {f851011d-b72e-4f09-b75e-bcfc4c95e585}, !- Object Name
  Length,                                 !- Feature Name 1
  Double,                                 !- Feature Data Type 1
  39.083244491725608,                     !- Feature Value 1
  Width,                                  !- Feature Name 2
  Double,                                 !- Feature Data Type 2
  39.083244491725608,                     !- Feature Value 2
  Azimuth,                                !- Feature Name 3
  Integer,                                !- Feature Data Type 3
  0,                                      !- Feature Value 3
  Tilt,                                   !- Feature Name 4
  Double,                                 !- Feature Data Type 4
  0,                                      !- Feature Value 4
  SurfaceType,                            !- Feature Name 5
  String,                                 !- Feature Data Type 5
  Roof;                                   !- Feature Value 5

OS:Material,
  {6926e7d4-fb91-4b27-ab31-aa56945666ca}, !- Handle
  asphalt or fiberglass shingles,         !- Name
  Rough,                                  !- Roughness
  0.00635,                                !- Thickness {m}
  0.162714,                               !- Conductivity {W/m-K}
  1121.4,                                 !- Density {kg/m3}
  1465.45,                                !- Specific Heat {J/kg-K}
  0.9,                                    !- Thermal Absorptance
  0.85,                                   !- Solar Absorptance
  0.85;                                   !- Visible Absorptance

OS:Material,
  {82d6eb05-2478-4052-8522-52b4643d57fd}, !- Handle
  roof stud and cavity,                   !- Name
  Rough,                                  !- Roughness
  0.0889,                                 !- Thickness {m}
  0.491900632004487,                      !- Conductivity {W/m-K}
  50.32683,                               !- Density {kg/m3}
  1063.80987585548,                       !- Specific Heat {J/kg-K}
  0.9,                                    !- Thermal Absorptance
  0.7,                                    !- Solar Absorptance
  0.7;                                    !- Visible Absorptance

OS:Material,
  {584c936a-1710-4e3d-8d4c-41ff0c78fabc}, !- Handle
  gypsum board,                           !- Name
  Rough,                                  !- Roughness
  0.00254,                                !- Thickness {m}
  0.1602906,                              !- Conductivity {W/m-K}
  801,                                    !- Density {kg/m3}
  837.4,                                  !- Specific Heat {J/kg-K}
  0.9,                                    !- Thermal Absorptance
  0.6,                                    !- Solar Absorptance
  0.6;                                    !- Visible Absorptance

OS:Construction,
  {512ea150-fefb-47c9-8f3e-607017bbb0fb}, !- Handle
  Roof1 construction,                     !- Name
  ,                                       !- Surface Rendering Name
  {6926e7d4-fb91-4b27-ab31-aa56945666ca}, !- Layer 1
  {82d6eb05-2478-4052-8522-52b4643d57fd}, !- Layer 2
  {584c936a-1710-4e3d-8d4c-41ff0c78fabc}; !- Layer 3

OS:Surface,
  {d92d87dd-6a12-4764-90c6-628658496b46}, !- Handle
  Wall1,                                  !- Name
  Wall,                                   !- Surface Type
  {1d97c14a-9bfa-462b-b6f6-14cd62d4d190}, !- Construction Name
  {4e46de75-5d1e-4870-920f-7679b47eee46}, !- Space Name
  Outdoors,                               !- Outside Boundary Condition
  ,                                       !- Outside Boundary Condition Object
  SunExposed,                             !- Sun Exposure
  WindExposed,                            !- Wind Exposure
  ,                                       !- View Factor to Ground
  ,                                       !- Number of Vertices
  -29.479875, 30.4089054, 0,              !- X,Y,Z Vertex 1 {m}
  -29.479875, 30.4089054, 4.8768,         !- X,Y,Z Vertex 2 {m}
  -21.055965, 30.4089054, 4.8768,         !- X,Y,Z Vertex 3 {m}
  -21.055965, 30.4089054, 0;              !- X,Y,Z Vertex 4 {m}

OS:AdditionalProperties,
  {aa6e115c-c59b-4c53-9cfe-6cb372a35d89}, !- Handle
  {d92d87dd-6a12-4764-90c6-628658496b46}, !- Object Name
  Length,                                 !- Feature Name 1
  Double,                                 !- Feature Data Type 1
  27.637499999999999,                     !- Feature Value 1
  Azimuth,                                !- Feature Name 2
  Integer,                                !- Feature Data Type 2
  0,                                      !- Feature Value 2
  Tilt,                                   !- Feature Name 3
  Double,                                 !- Feature Data Type 3
  90,                                     !- Feature Value 3
  SurfaceType,                            !- Feature Name 4
  String,                                 !- Feature Data Type 4
  Wall;                                   !- Feature Value 4

OS:Material,
  {129ad514-c394-466b-a226-ea78c0aa8d4b}, !- Handle
  wood siding,                            !- Name
  Rough,                                  !- Roughness
  0.0254,                                 !- Thickness {m}
  0.1024175,                              !- Conductivity {W/m-K}
  544.68,                                 !- Density {kg/m3}
  1172.36,                                !- Specific Heat {J/kg-K}
  0.9,                                    !- Thermal Absorptance
  0.7,                                    !- Solar Absorptance
  0.7;                                    !- Visible Absorptance

OS:Material,
  {ff6ef46b-7cdd-41cf-a88c-217cbb50845a}, !- Handle
  osb sheathing 0.5 in.,                  !- Name
  Rough,                                  !- Roughness
  0.0127,                                 !- Thickness {m}
  0.1154577,                              !- Conductivity {W/m-K}
  512.64,                                 !- Density {kg/m3}
  1214.23,                                !- Specific Heat {J/kg-K}
  0.9,                                    !- Thermal Absorptance
  0.7,                                    !- Solar Absorptance
  0.7;                                    !- Visible Absorptance

OS:Material,
  {90a7cf16-b9e0-44c8-88b8-7f7aa0d55caa}, !- Handle
  wall stud and cavity,                   !- Name
  Rough,                                  !- Roughness
  0.1397,                                 !- Thickness {m}
  0.0929021674204099,                     !- Conductivity {W/m-K}
  139.0536,                               !- Density {kg/m3}
  1170.23755760369,                       !- Specific Heat {J/kg-K}
  0.9,                                    !- Thermal Absorptance
  0.7,                                    !- Solar Absorptance
  0.7;                                    !- Visible Absorptance

OS:Material,
  {1d37db63-ab8f-4c81-9675-178256f5dc8a}, !- Handle
  gypsum board 1,                         !- Name
  Rough,                                  !- Roughness
  0.0127,                                 !- Thickness {m}
  0.1602906,                              !- Conductivity {W/m-K}
  801,                                    !- Density {kg/m3}
  837.4,                                  !- Specific Heat {J/kg-K}
  0.9,                                    !- Thermal Absorptance
  0.6,                                    !- Solar Absorptance
  0.6;                                    !- Visible Absorptance

OS:Construction,
  {1d97c14a-9bfa-462b-b6f6-14cd62d4d190}, !- Handle
  Wall1 construction,                     !- Name
  ,                                       !- Surface Rendering Name
  {129ad514-c394-466b-a226-ea78c0aa8d4b}, !- Layer 1
  {ff6ef46b-7cdd-41cf-a88c-217cbb50845a}, !- Layer 2
  {90a7cf16-b9e0-44c8-88b8-7f7aa0d55caa}, !- Layer 3
  {1d37db63-ab8f-4c81-9675-178256f5dc8a}; !- Layer 4

OS:Surface,
  {678add73-f7e4-4aad-97aa-e6e006c1743f}, !- Handle
  Wall2,                                  !- Name
  Wall,                                   !- Surface Type
  {ba1dcd4e-547a-43da-a3f1-9d04a7961557}, !- Construction Name
  {4e46de75-5d1e-4870-920f-7679b47eee46}, !- Space Name
  Outdoors,                               !- Outside Boundary Condition
  ,                                       !- Outside Boundary Condition Object
  SunExposed,                             !- Sun Exposure
  WindExposed,                            !- Wind Exposure
  ,                                       !- View Factor to Ground
  ,                                       !- Number of Vertices
  30.4089054, -26.1969504, 0,             !- X,Y,Z Vertex 1 {m}
  30.4089054, -26.1969504, 4.8768,        !- X,Y,Z Vertex 2 {m}
  30.4089054, -30.4089054, 4.8768,        !- X,Y,Z Vertex 3 {m}
  30.4089054, -30.4089054, 0;             !- X,Y,Z Vertex 4 {m}

OS:AdditionalProperties,
  {00897d0d-b9dc-4ef1-89cb-d67a9021c620}, !- Handle
  {678add73-f7e4-4aad-97aa-e6e006c1743f}, !- Object Name
  Length,                                 !- Feature Name 1
  Double,                                 !- Feature Data Type 1
  13.81875,                               !- Feature Value 1
  Azimuth,                                !- Feature Name 2