
OS:Version,
  {a8683f55-4bec-4425-a7c3-0998e0e83f27}, !- Handle
  3.9.0;                                  !- Version Identifier

OS:SimulationControl,
  {ef1dad52-fcf3-4c9a-817d-a09e17cd2e36}, !- Handle
  ,                                       !- Do Zone Sizing Calculation
  ,                                       !- Do System Sizing Calculation
  ,                                       !- Do Plant Sizing Calculation
  No;                                     !- Run Simulation for Sizing Periods

OS:Timestep,
  {ae26ac05-f7dc-4444-96ff-673ef458eaeb}, !- Handle
  1;                                      !- Number of Timesteps per Hour

OS:ShadowCalculation,
  {5fb7ab50-6840-4e5d-8b1e-e11077e1ac36}, !- Handle
  PolygonClipping,                        !- Shading Calculation Method
  ,                                       !- Shading Calculation Update Frequency Method
  20,                                     !- Shading Calculation Update Frequency
  200,                                    !- Maximum Figures in Shadow Overlap Calculations
  ,                                       !- Polygon Clipping Algorithm
  512,                                    !- Pixel Counting Resolution
  ,                                       !- Sky Diffuse Modeling Algorithm
  No,                                     !- Output External Shading Calculation Results
  No,                                     !- Disable Self-Shading Within Shading Zone Groups
  No;                                     !- Disable Self-Shading From Shading Zone Groups to Other Zones

OS:SurfaceConvectionAlgorithm:Outside,
  {a45886c0-c829-4096-934f-11d2482f1d10}, !- Handle
  DOE-2;                                  !- Algorithm

OS:SurfaceConvectionAlgorithm:Inside,
  {6d514a6d-cfae-4e93-8c92-aa8f9b9174da}, !- Handle
  TARP;                                   !- Algorithm

OS:ZoneCapacitanceMultiplier:ResearchSpecial,
  {c2fb59da-b023-41d4-b47d-4642ec921962}, !- Handle
  7,                                      !- Temperature Capacity Multiplier
  15,                                     !- Humidity Capacity Multiplier
  ;                                       !- Carbon Dioxide Capacity Multiplier

OS:ConvergenceLimits,
  {c1c145ed-c65d-42e9-a0e3-c8abd14e7968}, !- Handle
  0;                                      !- Minimum System Timestep {minutes}

OS:RunPeriod,
  {2ace80f4-a09c-4e7b-9f29-dcbc490391f8}, !- Handle
  Run Period 1,                           !- Name
  1,                                      !- Begin Month
  1,                                      !- Begin Day of Month
  12,                                     !- End Month
  31,                                     !- End Day of Month
  ,                                       !- Use Weather File Holidays and Special Days
  ,                                       !- Use Weather File Daylight Saving Period
  ,                                       !- Apply Weekend Holiday Rule
  ,                                       !- Use Weather File Rain Indicators
  ,                                       !- Use Weather File Snow Indicators
  ;                                       !- Number of Times Runperiod to be Repeated

OS:PerformancePrecisionTradeoffs,
  {a8f8be31-0e29-441b-bcf4-0743c878995f}, !- Handle
  ,                                       !- Use Coil Direct Solutions
  CarrollMRT;                             !- Zone Radiant Exchange Algorithm

OS:WeatherFile,
  {f0413dc7-4b21-4c9f-9bbe-b1a968adb120}, !- Handle
  Buffalo Niagara Intl Ap,                !- City
  NY,                                     !- State Province Region
  USA,                                    !- Country
  TMY3,                                   !- Data Source
  725280,                                 !- WMO Number
  42.93,                                  !- Latitude {deg}
  -78.73,                                 !- Longitude {deg}
  -5,                                     !- Time Zone {hr}
  215,                                    !- Elevation {m}
  /Users/nmoore/github/urbanopt-example-geojson-project/example_project/weather/USA_NY_Buffalo-Greater.Buffalo.Intl.AP.725280_TMY3.epw, !- Url
  6B50E0FF,                               !- Checksum
  ,                                       !- Start Date Actual Year
  Sunday;                                 !- Start Day of Week

OS:YearDescription,
  {9f54c50b-a6b4-41ab-a04a-70925818bf87}, !- Handle
  2007,                                   !- Calendar Year
  ,                                       !- Day of Week for Start Day
  ;                                       !- Is Leap Year

OS:Site,
  {4b4a7c84-71f4-4989-99fc-7b8bd58c29c3}, !- Handle
  Buffalo Niagara Intl Ap_NY,             !- Name
  42.93,                                  !- Latitude {deg}
  -78.73,                                 !- Longitude {deg}
  -5,                                     !- Time Zone {hr}
  215,                                    !- Elevation {m}
  Suburbs,                                !- Terrain
  Yes;                                    !- Keep Site Location Information

OS:RunPeriodControl:DaylightSavingTime,
  {5b5fabcd-3a18-4f43-bad8-9741b70bfd00}, !- Handle
  Mar 12,                                 !- Start Date
  Nov 5;                                  !- End Date

OS:Site:GroundTemperature:Shallow,
  {ff8c88ba-0e6c-49aa-b895-92866f5784d1}, !- Handle
  4.30207395723828,                       !- January Surface Ground Temperature {C}
  2.29327249652502,                       !- February Surface Ground Temperature {C}
  2.13240047156047,                       !- March Surface Ground Temperature {C}
  3.08567940719286,                       !- April Surface Ground Temperature {C}
  6.91256312497526,                       !- May Surface Ground Temperature {C}
  10.7216195949507,                       !- June Surface Ground Temperature {C}
  14.0238679822574,                       !- July Surface Ground Temperature {C}
  16.1157611184724,                       !- August Surface Ground Temperature {C}
  16.2934789303462,                       !- September Surface Ground Temperature {C}
  14.5920754632847,                       !- October Surface Ground Temperature {C}
  11.374036348653,                        !- November Surface Ground Temperature {C}
  7.68182621661674;                       !- December Surface Ground Temperature {C}

OS:ThermalZone,
  {4486d524-bed7-458b-bf37-c2796a526c95}, !- Handle
  conditioned space,                      !- Name
  1,                                      !- Multiplier
  ,                                       !- Ceiling Height {m}
  692.06373070848,                        !- Volume {m3}
  ,                                       !- Floor Area {m2}
  ,                                       !- Zone Inside Convection Algorithm
  ,                                       !- Zone Outside Convection Algorithm
  ,                                       !- Zone Conditioning Equipment List Name
  {0798c19a-cd8e-488b-9a96-c9fb7be4bc13}, !- Zone Air Inlet Port List
  {b250900e-781a-4247-a0d6-447adf198e26}, !- Zone Air Exhaust Port List
  {70692ab1-e437-4ff6-887f-3e79c753aca9}, !- Zone Air Node Name
  {62f879c7-2f58-4340-a645-02c3d403f263}, !- Zone Return Air Port List
  ,                                       !- Primary Daylighting Control Name
  ,                                       !- Fraction of Zone Controlled by Primary Daylighting Control
  ,                                       !- Secondary Daylighting Control Name
  ,                                       !- Fraction of Zone Controlled by Secondary Daylighting Control
  ,                                       !- Illuminance Map Name
  ,                                       !- Group Rendering Name
  {69b5d67f-5cc5-4e1b-9a4a-c88df6ceb1fc}, !- Thermostat Name
  No;                                     !- Use Ideal Air Loads

OS:Node,
  {91d07740-bb98-4e2d-a248-1089ac056bc8}, !- Handle
  Node 1,                                 !- Name
  {70692ab1-e437-4ff6-887f-3e79c753aca9}, !- Inlet Port
  ;                                       !- Outlet Port

OS:Connection,
  {70692ab1-e437-4ff6-887f-3e79c753aca9}, !- Handle
  {4486d524-bed7-458b-bf37-c2796a526c95}, !- Source Object
  11,                                     !- Outlet Port
  {91d07740-bb98-4e2d-a248-1089ac056bc8}, !- Target Object
  2;                                      !- Inlet Port

OS:PortList,
  {0798c19a-cd8e-488b-9a96-c9fb7be4bc13}, !- Handle
  {4486d524-bed7-458b-bf37-c2796a526c95}, !- HVAC Component
  {f5458351-22f7-431e-99f4-73670d481343}; !- Port 1

OS:PortList,
  {b250900e-781a-4247-a0d6-447adf198e26}, !- Handle
  {4486d524-bed7-458b-bf37-c2796a526c95}; !- HVAC Component

OS:PortList,
  {62f879c7-2f58-4340-a645-02c3d403f263}, !- Handle
  {4486d524-bed7-458b-bf37-c2796a526c95}, !- HVAC Component
  {c9356ddb-8ec5-4b96-99ab-25852b975976}; !- Port 1

OS:Sizing:Zone,
  {ec08cc20-4863-47bb-bd36-9edf4fd84d84}, !- Handle
  {4486d524-bed7-458b-bf37-c2796a526c95}, !- Zone or ZoneList Name
  SupplyAirTemperature,                   !- Zone Cooling Design Supply Air Temperature Input Method
  14,                                     !- Zone Cooling Design Supply Air Temperature {C}
  11.11,                                  !- Zone Cooling Design Supply Air Temperature Difference {deltaC}
  SupplyAirTemperature,                   !- Zone Heating Design Supply Air Temperature Input Method
  40,                                     !- Zone Heating Design Supply Air Temperature {C}
  11.11,                                  !- Zone Heating Design Supply Air Temperature Difference {deltaC}
  0.0085,                                 !- Zone Cooling Design Supply Air Humidity Ratio {kg-H2O/kg-air}
  0.008,                                  !- Zone Heating Design Supply Air Humidity Ratio {kg-H2O/kg-air}
  ,                                       !- Zone Heating Sizing Factor
  ,                                       !- Zone Cooling Sizing Factor
  DesignDay,                              !- Cooling Design Air Flow Method
  ,                                       !- Cooling Design Air Flow Rate {m3/s}
  ,                                       !- Cooling Minimum Air Flow per Zone Floor Area {m3/s-m2}
  ,                                       !- Cooling Minimum Air Flow {m3/s}
  ,                                       !- Cooling Minimum Air Flow Fraction
  DesignDay,                              !- Heating Design Air Flow Method
  ,                                       !- Heating Design Air Flow Rate {m3/s}
  ,                                       !- Heating Maximum Air Flow per Zone Floor Area {m3/s-m2}
  ,                                       !- Heating Maximum Air Flow {m3/s}
  ,                                       !- Heating Maximum Air Flow Fraction
  No,                                     !- Account for Dedicated Outdoor Air System
  NeutralSupplyAir,                       !- Dedicated Outdoor Air System Control Strategy
  autosize,                               !- Dedicated Outdoor Air Low Setpoint Temperature for Design {C}
  autosize,                               !- Dedicated Outdoor Air High Setpoint Temperature for Design {C}
  Sensible Load Only No Latent Load,      !- Zone Load Sizing Method
  HumidityRatioDifference,                !- Zone Latent Cooling Design Supply Air Humidity Ratio Input Method
  ,                                       !- Zone Dehumidification Design Supply Air Humidity Ratio {kgWater/kgDryAir}
  0.005,                                  !- Zone Cooling Design Supply Air Humidity Ratio Difference {kgWater/kgDryAir}
  HumidityRatioDifference,                !- Zone Latent Heating Design Supply Air Humidity Ratio Input Method
  ,                                       !- Zone Humidification Design Supply Air Humidity Ratio {kgWater/kgDryAir}
  0.005,                                  !- Zone Humidification Design Supply Air Humidity Ratio Difference {kgWater/kgDryAir}
  ,                                       !- Zone Humidistat Dehumidification Set Point Schedule Name
  ,                                       !- Zone Humidistat Humidification Set Point Schedule Name
  ,                                       !- Design Zone Air Distribution Effectiveness in Cooling Mode
  ,                                       !- Design Zone Air Distribution Effectiveness in Heating Mode
  ,                                       !- Design Zone Secondary Recirculation Fraction {dimensionless}
  ,                                       !- Design Minimum Zone Ventilation Efficiency {dimensionless}
  Coincident;                             !- Sizing Option

OS:ZoneHVAC:EquipmentList,
  {7d193555-7b2b-466a-a0cb-f226e9757c0d}, !- Handle
  Zone HVAC Equipment List 1,             !- Name
  {4486d524-bed7-458b-bf37-c2796a526c95}, !- Thermal Zone
  ,                                       !- Load Distribution Scheme
  {742a8107-504a-4e3d-8128-1c1f7d1e0c4c}, !- Zone Equipment 1
  1,                                      !- Zone Equipment Cooling Sequence 1
  1,                                      !- Zone Equipment Heating or No-Load Sequence 1
  {512ffa2a-e2ac-4162-80fd-f2640aa93380}, !- Zone Equipment Sequential Cooling Fraction Schedule Name 1
  {b8ef84b9-a6f5-45d0-9466-7a1732871484}; !- Zone Equipment Sequential Heating Fraction Schedule Name 1

OS:AdditionalProperties,
  {39a978f1-88c3-441f-b68a-695f3f226805}, !- Handle
  {4486d524-bed7-458b-bf37-c2796a526c95}, !- Object Name
  ObjectType,                             !- Feature Name 1
  String,                                 !- Feature Data Type 1
  conditioned space;                      !- Feature Value 1

OS:Space,
  {1dda8c3b-cf92-4fb2-a820-33c51a788a0b}, !- Handle
  conditioned space 1,                    !- Name
  ,                                       !- Space Type Name
  ,                                       !- Default Construction Set Name
  ,                                       !- Default Schedule Set Name
  ,                                       !- Direction of Relative North {deg}
  ,                                       !- X Origin {m}
  ,                                       !- Y Origin {m}
  ,                                       !- Z Origin {m}
  ,                                       !- Building Story Name
  {4486d524-bed7-458b-bf37-c2796a526c95}, !- Thermal Zone Name
  ,                                       !- Part of Total Floor Area
  ,                                       !- Design Specification Outdoor Air Object Name
  ,                                       !- Building Unit Name
  692.06373070848;                        !- Volume {m3}

OS:Schedule:Ruleset,
  {c4e14c08-8c0e-4dc8-9fb7-29333a8909e3}, !- Handle
  heating setpoint,                       !- Name
  {85f469f2-46ae-4f6d-83b4-f843430ca02e}, !- Schedule Type Limits Name
  {68f536ee-041b-4a92-b98f-afefc058ebfa}; !- Default Day Schedule Name

OS:Schedule:Day,
  {68f536ee-041b-4a92-b98f-afefc058ebfa}, !- Handle
  heating setpoint default day,           !- Name
  {85f469f2-46ae-4f6d-83b4-f843430ca02e}, !- Schedule Type Limits Name
  ,                                       !- Interpolate to Timestep
  24,                                     !- Hour 1
  0,                                      !- Minute 1
  0;                                      !- Value Until Time 1

OS:Schedule:Rule,
  {521a3ccb-9b22-4367-baa3-580154bdea38}, !- Handle
  heating setpoint allday rule,           !- Name
  {c4e14c08-8c0e-4dc8-9fb7-29333a8909e3}, !- Schedule Ruleset Name
  0,                                      !- Rule Order
  {817935ac-feaa-4068-9c5a-445ed58cafa7}, !- Day Schedule Name
  Yes,                                    !- Apply Sunday
  Yes,                                    !- Apply Monday
  Yes,                                    !- Apply Tuesday
  Yes,                                    !- Apply Wednesday
  Yes,                                    !- Apply Thursday
  Yes,                                    !- Apply Friday
  Yes,                                    !- Apply Saturday
  DateRange,                              !- Date Specification Type
  1,                                      !- Start Month
  1,                                      !- Start Day
  12,                                     !- End Month
  31;                                     !- End Day

OS:Schedule:Day,
  {817935ac-feaa-4068-9c5a-445ed58cafa7}, !- Handle
  heating setpoint day,                   !- Name
  {85f469f2-46ae-4f6d-83b4-f843430ca02e}, !- Schedule Type Limits Name
  ,                                       !- Interpolate to Timestep
  24,                                     !- Hour 1
  0,                                      !- Minute 1
  20;                                     !- Value Until Time 1

OS:Schedule:Ruleset,
  {8355048a-0cb4-437a-8e89-dea6d21a8756}, !- Handle
  cooling setpoint,                       !- Name
  {85f469f2-46ae-4f6d-83b4-f843430ca02e}, !- Schedule Type Limits Name
  {8b23a4a3-c0d9-4a47-85b1-0539f1b5b8d9}; !- Default Day Schedule Name

OS:Schedule:Day,
  {8b23a4a3-c0d9-4a47-85b1-0539f1b5b8d9}, !- Handle
  cooling setpoint default day,           !- Name
  {85f469f2-46ae-4f6d-83b4-f843430ca02e}, !- Schedule Type Limits Name
  ,                                       !- Interpolate to Timestep
  24,                                     !- Hour 1
  0,                                      !- Minute 1
  0;                                      !- Value Until Time 1

OS:Schedule:Rule,
  {97a3df8a-1a46-42b0-838d-7456bc62d99d}, !- Handle
  cooling setpoint allday rule,           !- Name
  {8355048a-0cb4-437a-8e89-dea6d21a8756}, !- Schedule Ruleset Name
  0,                                      !- Rule Order
  {fda361c9-4131-44cf-b838-bbbe54fb5b0f}, !- Day Schedule Name
  Yes,                                    !- Apply Sunday
  Yes,                                    !- Apply Monday
  Yes,                                    !- Apply Tuesday
  Yes,                                    !- Apply Wednesday
  Yes,                                    !- Apply Thursday
  Yes,                                    !- Apply Friday
  Yes,                                    !- Apply Saturday
  DateRange,                              !- Date Specification Type
  1,                                      !- Start Month
  1,                                      !- Start Day
  12,                                     !- End Month
  31;                                     !- End Day

OS:Schedule:Day,
  {fda361c9-4131-44cf-b838-bbbe54fb5b0f}, !- Handle
  cooling setpoint day,                   !- Name
  {85f469f2-46ae-4f6d-83b4-f843430ca02e}, !- Schedule Type Limits Name
  ,                                       !- Interpolate to Timestep
  24,                                     !- Hour 1
  0,                                      !- Minute 1
  25.5555555555556;                       !- Value Until Time 1

OS:ThermostatSetpoint:DualSetpoint,
  {69b5d67f-5cc5-4e1b-9a4a-c88df6ceb1fc}, !- Handle
  conditioned space temperature setpoint, !- Name
  {c4e14c08-8c0e-4dc8-9fb7-29333a8909e3}, !- Heating Setpoint Temperature Schedule Name
  {8355048a-0cb4-437a-8e89-dea6d21a8756}, !- Cooling Setpoint Temperature Schedule Name
  0;                                      !- Temperature Difference Between Cutout And Setpoint {deltaC}

OS:ScheduleTypeLimits,
  {85f469f2-46ae-4f6d-83b4-f843430ca02e}, !- Handle
  Temperature,                            !- Name
  ,                                       !- Lower Limit Value
  ,                                       !- Upper Limit Value
  Continuous,                             !- Numeric Type
  Temperature;                            !- Unit Type

OS:Surface,
  {1d0edd18-0ac6-4025-9571-0f064a4e4901}, !- Handle
  Roof1,                                  !- Name
  RoofCeiling,                            !- Surface Type
  {2ebd5a7a-1565-4539-b515-52f74879c884}, !- Construction Name
  {632bec36-755a-4ba3-89aa-22f4d7e82af6}, !- Space Name
  Outdoors,                               !- Outside Boundary Condition
  ,                                       !- Outside Boundary Condition Object
  SunExposed,                             !- Sun Exposure
  WindExposed,                            !- Wind Exposure
  ,                                       !- View Factor to Ground
  ,                                       !- Number of Vertices
  -26.9397848849634, 58.0608691618865, 2.4384, !- X,Y,Z Vertex 1 {m}
  -26.9397848849634, 46.7946431136661, 8.0715130241102, !- X,Y,Z Vertex 2 {m}
  -14.3437612381136, 46.7946431136661, 8.0715130241102, !- X,Y,Z Vertex 3 {m}
  -14.3437612381136, 58.0608691618865, 2.4384; !- X,Y,Z Vertex 4 {m}

OS:AdditionalProperties,
  {a0934b86-73f6-4460-b4de-8862fd7ccc69}, !- Handle
  {1d0edd18-0ac6-4025-9571-0f064a4e4901}, !- Object Name
  Length,                                 !- Feature Name 1
  Double,                                 !- Feature Data Type 1
  41.325536899113608,                     !- Feature Value 1
  Width,                                  !- Feature Name 2
  Double,                                 !- Feature Data Type 2
  41.325536899113601,                     !- Feature Value 2
  Azimuth,                                !- Feature Name 3
  Integer,                                !- Feature Data Type 3
  0,                                      !- Feature Value 3
  Tilt,                                   !- Feature Name 4
  Double,                                 !- Feature Data Type 4
  0.5,                                    !- Feature Value 4
  SurfaceType,                            !- Feature Name 5
  String,                                 !- Feature Data Type 5
  Roof;                                   !- Feature Value 5

OS:ThermalZone,
  {6fde8506-7014-484d-b616-35fed0842152}, !- Handle
  attic - vented,                         !- Name
  1,                                      !- Multiplier
  ,                                       !- Ceiling Height {m}
  356.389957095237,                       !- Volume {m3}
  ,                                       !- Floor Area {m2}
  ,                                       !- Zone Inside Convection Algorithm
  ,                                       !- Zone Outside Convection Algorithm
  ,                                       !- Zone Conditioning Equipment List Name
  {dc54642f-bb46-4956-b791-ef14df3ea5eb}, !- Zone Air Inlet Port List
  {7f5e9090-c100-4087-8895-354e69d09d76}, !- Zone Air Exhaust Port List
  {ffed71cc-5c8f-4c90-a44c-a9b886a60c49}, !- Zone Air Node Name
  {1dad6e78-0af4-45c2-a6d0-78e9324f2a3e}, !- Zone Return Air Port List
  ,                                       !- Primary Daylighting Control Name
  ,                                       !- Fraction of Zone Controlled by Primary Daylighting Control
  ,                                       !- Secondary Daylighting Control Name
  ,                                       !- Fraction of Zone Controlled by Secondary Daylighting Control
  ,                                       !- Illuminance Map Name
  ,                                       !- Group Rendering Name
  ,                                       !- Thermostat Name
  No;                                     !- Use Ideal Air Loads

OS:Node,
  {1d000245-0c25-41b8-9fb7-0919be38eb4a}, !- Handle
  Node 2,                                 !- Name
  {ffed71cc-5c8f-4c90-a44c-a9b886a60c49}, !- Inlet Port
  ;                                       !- Outlet Port

OS:Connection,
  {ffed71cc-5c8f-4c90-a44c-a9b886a60c49}, !- Handle
  {6fde8506-7014-484d-b616-35fed0842152}, !- Source Object
  11,                                     !- Outlet Port
  {1d000245-0c25-41b8-9fb7-0919be38eb4a}, !- Target Object
  2;                                      !- Inlet Port

OS:PortList,
  {dc54642f-bb46-4956-b791-ef14df3ea5eb}, !- Handle
  {6fde8506-7014-484d-b616-35fed0842152}; !- HVAC Component

OS:PortList,
  {7f5e9090-c100-4087-8895-354e69d09d76}, !- Handle
  {6fde8506-7014-484d-b616-35fed0842152}; !- HVAC Component

OS:PortList,
  {1dad6e78-0af4-45c2-a6d0-78e9324f2a3e}, !- Handle
  {6fde8506-7014-484d-b616-35fed0842152}; !- HVAC Component

OS:Sizing:Zone,
  {411e0792-e9b0-41f3-8003-17fcfda6f0e4}, !- Handle
  {6fde8506-7014-484d-b616-35fed0842152}, !- Zone or ZoneList Name
  SupplyAirTemperature,                   !- Zone Cooling Design Supply Air Temperature Input Method
  14,                                     !- Zone Cooling Design Supply Air Temperature {C}
  11.11,                                  !- Zone Cooling Design Supply Air Temperature Difference {deltaC}
  SupplyAirTemperature,                   !- Zone Heating Design Supply Air Temperature Input Method
  40,                                     !- Zone Heating Design Supply Air Temperature {C}
  11.11,                                  !- Zone Heating Design Supply Air Temperature Difference {deltaC}
  0.0085,                                 !- Zone Cooling Design Supply Air Humidity Ratio {kg-H2O/kg-air}
  0.008,                                  !- Zone Heating Design Supply Air Humidity Ratio {kg-H2O/kg-air}
  ,                                       !- Zone Heating Sizing Factor
  ,                                       !- Zone Cooling Sizing Factor
  DesignDay,                              !- Cooling Design Air Flow Method
  ,                                       !- Cooling Design Air Flow Rate {m3/s}
  ,                                       !- Cooling Minimum Air Flow per Zone Floor Area {m3/s-m2}
  ,                                       !- Cooling Minimum Air Flow {m3/s}
  ,                                       !- Cooling Minimum Air Flow Fraction
  DesignDay,                              !- Heating Design Air Flow Method
  ,                                       !- Heating Design Air Flow Rate {m3/s}
  ,                                       !- Heating Maximum Air Flow per Zone Floor Area {m3/s-m2}
  ,                                       !- Heating Maximum Air Flow {m3/s}
  ,                                       !- Heating Maximum Air Flow Fraction
  No,                                     !- Account for Dedicated Outdoor Air System
  NeutralSupplyAir,                       !- Dedicated Outdoor Air System Control Strategy
  autosize,                               !- Dedicated Outdoor Air Low Setpoint Temperature for Design {C}
  autosize,                               !- Dedicated Outdoor Air High Setpoint Temperature for Design {C}
  Sensible Load Only No Latent Load,      !- Zone Load Sizing Method
  HumidityRatioDifference,                !- Zone Latent Cooling Design Supply Air Humidity Ratio Input Method
  ,                                       !- Zone Dehumidification Design Supply Air Humidity Ratio {kgWater/kgDryAir}
  0.005,                                  !- Zone Cooling Design Supply Air Humidity Ratio Difference {kgWater/kgDryAir}
  HumidityRatioDifference,                !- Zone Latent Heating Design Supply Air Humidity Ratio Input Method
  ,                                       !- Zone Humidification Design Supply Air Humidity Ratio {kgWater/kgDryAir}
  0.005,                                  !- Zone Humidification Design Supply Air Humidity Ratio Difference {kgWater/kgDryAir}
  ,                                       !- Zone Humidistat Dehumidification Set Point Schedule Name
  ,                                       !- Zone Humidistat Humidification Set Point Schedule Name
  ,                                       !- Design Zone Air Distribution Effectiveness in Cooling Mode
  ,                                       !- Design Zone Air Distribution Effectiveness in Heating Mode
  ,                                       !- Design Zone Secondary Recirculation Fraction {dimensionless}
  ,                                       !- Design Minimum Zone Ventilation Efficiency {dimensionless}
  Coincident;                             !- Sizing Option

OS:ZoneHVAC:EquipmentList,
  {ef294bb8-afee-494a-924b-2e6298c31f4f}, !- Handle
  Zone HVAC Equipment List 2,             !- Name
  {6fde8506-7014-484d-b616-35fed0842152}; !- Thermal Zone

OS:AdditionalProperties,
  {124c35f0-e760-45ce-afd8-34d801a1109f}, !- Handle
  {6fde8506-7014-484d-b616-35fed0842152}, !- Object Name
  ObjectType,                             !- Feature Name 1
  String,                                 !- Feature Data Type 1
  attic - vented;                         !- Feature Value 1

OS:Space,
  {632bec36-755a-4ba3-89aa-22f4d7e82af6}, !- Handle
  attic - vented 1,                       !- Name
  ,                                       !- Space Type Name
  ,                                       !- Default Construction Set Name
  ,                                       !- Default Schedule Set Name
  ,                                       !- Direction of Relative North {deg}
  ,                                       !- X Origin {m}
  ,                                       !- Y Origin {m}
  ,                                       !- Z Origin {m}
  ,                                       !- Building Story Name
  {6fde8506-7014-484d-b616-35fed0842152}, !- Thermal Zone Name
  ,                                       !- Part of Total Floor Area
  ,                                       !- Design Specification Outdoor Air Object Name
  ,                                       !- Building Unit Name
  356.389957095237;                       !- Volume {m3}

OS:Material,
  {d0d6d3c3-db50-4155-8612-a3a421ccd040}, !- Handle
  asphalt or fiberglass shingles,         !- Name
  Rough,                                  !- Roughness
  0.00635,                                !- Thickness {m}
  0.162714,                               !- Conductivity {W/m-K}
  1121.4,                                 !- Density {kg/m3}
  1465.45,                                !- Specific Heat {J/kg-K}
  0.9,                                    !- Thermal Absorptance
  0.85,                                   !- Solar Absorptance