
OS:Version,
  {0829237c-b897-4a3c-b978-f9147d850fad}, !- Handle
  3.10.0;                                 !- Version Identifier

OS:SimulationControl,
  {3fc39342-0952-4890-98da-fabc1cb4f113}, !- Handle
  ,                                       !- Do Zone Sizing Calculation
  ,                                       !- Do System Sizing Calculation
  ,                                       !- Do Plant Sizing Calculation
  No;                                     !- Run Simulation for Sizing Periods

OS:Timestep,
  {7b680af0-769b-4f9d-ac42-6ffa010b490e}, !- Handle
  1;                                      !- Number of Timesteps per Hour

OS:ShadowCalculation,
  {b7965f8c-b699-45a7-8f14-8d6e0285fbe2}, !- Handle
  PolygonClipping,                        !- Shading Calculation Method
  ,                                       !- Shading Calculation Update Frequency Method
  20,                                     !- Shading Calculation Update Frequency
  200,                                    !- Maximum Figures in Shadow Overlap Calculations
  ,                                       !- Polygon Clipping Algorithm
  512,                                    !- Pixel Counting Resolution
  ,                                       !- Sky Diffuse Modeling Algorithm
  No,                                     !- Output External Shading Calculation Results
  No,                                     !- Disable Self-Shading Within Shading Zone Groups
  No;                                     !- Disable Self-Shading From Shading Zone Groups to Other Zones

OS:SurfaceConvectionAlgorithm:Outside,
  {ddfe1593-55b0-405e-bec2-2b1a8379a904}, !- Handle
  DOE-2;                                  !- Algorithm

OS:SurfaceConvectionAlgorithm:Inside,
  {24769278-27ad-442f-b403-1759ddcdae41}, !- Handle
  TARP;                                   !- Algorithm

OS:ZoneCapacitanceMultiplier:ResearchSpecial,
  {e15ce5c2-eb15-4932-90ef-9597e6d3c1f4}, !- Handle
  7,                                      !- Temperature Capacity Multiplier
  15,                                     !- Humidity Capacity Multiplier
  ;                                       !- Carbon Dioxide Capacity Multiplier

OS:ConvergenceLimits,
  {73b22510-fbad-4e13-9a4e-c491a8a98f81}, !- Handle
  0;                                      !- Minimum System Timestep {minutes}

OS:RunPeriod,
  {3e6c3ba9-8776-49ec-86b2-8f9398a3a172}, !- Handle
  Run Period 1,                           !- Name
  1,                                      !- Begin Month
  1,                                      !- Begin Day of Month
  12,                                     !- End Month
  31,                                     !- End Day of Month
  ,                                       !- Use Weather File Holidays and Special Days
  ,                                       !- Use Weather File Daylight Saving Period
  ,                                       !- Apply Weekend Holiday Rule
  ,                                       !- Use Weather File Rain Indicators
  ,                                       !- Use Weather File Snow Indicators
  ;                                       !- Number of Times Runperiod to be Repeated

OS:PerformancePrecisionTradeoffs,
  {ac260683-790a-4433-b28f-3b1b65a62735}, !- Handle
  ,                                       !- Use Coil Direct Solutions
  CarrollMRT;                             !- Zone Radiant Exchange Algorithm

OS:WeatherFile,
  {de06d856-1d12-4aa4-a690-e03d38890ff4}, !- Handle
  Buffalo Niagara Intl Ap,                !- City
  NY,                                     !- State Province Region
  USA,                                    !- Country
  TMY3,                                   !- Data Source
  725280,                                 !- WMO Number
  42.93,                                  !- Latitude {deg}
  -78.73,                                 !- Longitude {deg}
  -5,                                     !- Time Zone {hr}
  215,                                    !- Elevation {m}
  /Users/nmoore/github/urbanopt-example-geojson-project/example_project/weather/USA_NY_Buffalo-Greater.Buffalo.Intl.AP.725280_TMY3.epw, !- Url
  6B50E0FF,                               !- Checksum
  ,                                       !- Start Date Actual Year
  Sunday;                                 !- Start Day of Week

OS:YearDescription,
  {2fbbd349-dc85-4316-92a1-82be480a5fde}, !- Handle
  2007,                                   !- Calendar Year
  ,                                       !- Day of Week for Start Day
  ;                                       !- Is Leap Year

OS:Site,
  {6dd03b3d-c597-4fc2-90ab-382aa765d880}, !- Handle
  Buffalo Niagara Intl Ap_NY,             !- Name
  42.93,                                  !- Latitude {deg}
  -78.73,                                 !- Longitude {deg}
  -5,                                     !- Time Zone {hr}
  215,                                    !- Elevation {m}
  Suburbs,                                !- Terrain
  Yes;                                    !- Keep Site Location Information

OS:RunPeriodControl:DaylightSavingTime,
  {6f2bb3f7-5643-44b3-a2b9-123e5e04fe44}, !- Handle
  Mar 12,                                 !- Start Date
  Nov 5;                                  !- End Date

OS:Site:GroundTemperature:Shallow,
  {f339e9e3-0c2a-4559-9edc-c4264e802454}, !- Handle
  4.30207395723828,                       !- January Surface Ground Temperature {C}
  2.29327249652502,                       !- February Surface Ground Temperature {C}
  2.13240047156047,                       !- March Surface Ground Temperature {C}
  3.08567940719286,                       !- April Surface Ground Temperature {C}
  6.91256312497526,                       !- May Surface Ground Temperature {C}
  10.7216195949507,                       !- June Surface Ground Temperature {C}
  14.0238679822574,                       !- July Surface Ground Temperature {C}
  16.1157611184724,                       !- August Surface Ground Temperature {C}
  16.2934789303462,                       !- September Surface Ground Temperature {C}
  14.5920754632847,                       !- October Surface Ground Temperature {C}
  11.374036348653,                        !- November Surface Ground Temperature {C}
  7.68182621661674;                       !- December Surface Ground Temperature {C}

OS:ThermalZone,
  {89192708-d056-47c2-8d4a-75c19fd5cd78}, !- Handle
  conditioned space,                      !- Name
  1,                                      !- Multiplier
  ,                                       !- Ceiling Height {m}
  692.06373070848,                        !- Volume {m3}
  ,                                       !- Floor Area {m2}
  ,                                       !- Zone Inside Convection Algorithm
  ,                                       !- Zone Outside Convection Algorithm
  ,                                       !- Zone Conditioning Equipment List Name
  {33fdd4ba-4155-4875-92a2-acedd11bbc4f}, !- Zone Air Inlet Port List
  {ad57c560-dfef-4811-a935-541124e2c453}, !- Zone Air Exhaust Port List
  {2baf0920-c71c-4712-8202-5f2466880b80}, !- Zone Air Node Name
  {85e3cdb7-3a69-4af8-a342-5c75aecbe6af}, !- Zone Return Air Port List
  ,                                       !- Primary Daylighting Control Name
  ,                                       !- Fraction of Zone Controlled by Primary Daylighting Control
  ,                                       !- Secondary Daylighting Control Name
  ,                                       !- Fraction of Zone Controlled by Secondary Daylighting Control
  ,                                       !- Illuminance Map Name
  ,                                       !- Group Rendering Name
  {fa1a56e2-d294-42dd-8a41-1544eb054a1f}, !- Thermostat Name
  No;                                     !- Use Ideal Air Loads

OS:Node,
  {4b6b1020-3849-4518-9d02-05762d84e45b}, !- Handle
  Node 1,                                 !- Name
  {2baf0920-c71c-4712-8202-5f2466880b80}, !- Inlet Port
  ;                                       !- Outlet Port

OS:Connection,
  {2baf0920-c71c-4712-8202-5f2466880b80}, !- Handle
  {89192708-d056-47c2-8d4a-75c19fd5cd78}, !- Source Object
  11,                                     !- Outlet Port
  {4b6b1020-3849-4518-9d02-05762d84e45b}, !- Target Object
  2;                                      !- Inlet Port

OS:PortList,
  {33fdd4ba-4155-4875-92a2-acedd11bbc4f}, !- Handle
  {89192708-d056-47c2-8d4a-75c19fd5cd78}, !- HVAC Component
  {b8a18438-eb2b-43bc-9884-07eb4c3dc6f4}; !- Port 1

OS:PortList,
  {ad57c560-dfef-4811-a935-541124e2c453}, !- Handle
  {89192708-d056-47c2-8d4a-75c19fd5cd78}; !- HVAC Component

OS:PortList,
  {85e3cdb7-3a69-4af8-a342-5c75aecbe6af}, !- Handle
  {89192708-d056-47c2-8d4a-75c19fd5cd78}, !- HVAC Component
  {db27ac98-80c7-4b80-8d85-5ee15c82c5b1}; !- Port 1

OS:Sizing:Zone,
  {7e3ea091-d4c7-4f1a-80c8-7a2507aa0dc6}, !- Handle
  {89192708-d056-47c2-8d4a-75c19fd5cd78}, !- Zone or ZoneList Name
  SupplyAirTemperature,                   !- Zone Cooling Design Supply Air Temperature Input Method
  14,                                     !- Zone Cooling Design Supply Air Temperature {C}
  11.11,                                  !- Zone Cooling Design Supply Air Temperature Difference {deltaC}
  SupplyAirTemperature,                   !- Zone Heating Design Supply Air Temperature Input Method
  40,                                     !- Zone Heating Design Supply Air Temperature {C}
  11.11,                                  !- Zone Heating Design Supply Air Temperature Difference {deltaC}
  0.0085,                                 !- Zone Cooling Design Supply Air Humidity Ratio {kg-H2O/kg-air}
  0.008,                                  !- Zone Heating Design Supply Air Humidity Ratio {kg-H2O/kg-air}
  ,                                       !- Zone Heating Sizing Factor
  ,                                       !- Zone Cooling Sizing Factor
  DesignDay,                              !- Cooling Design Air Flow Method
  ,                                       !- Cooling Design Air Flow Rate {m3/s}
  ,                                       !- Cooling Minimum Air Flow per Zone Floor Area {m3/s-m2}
  ,                                       !- Cooling Minimum Air Flow {m3/s}
  ,                                       !- Cooling Minimum Air Flow Fraction
  DesignDay,                              !- Heating Design Air Flow Method
  ,                                       !- Heating Design Air Flow Rate {m3/s}
  ,                                       !- Heating Maximum Air Flow per Zone Floor Area {m3/s-m2}
  ,                                       !- Heating Maximum Air Flow {m3/s}
  ,                                       !- Heating Maximum Air Flow Fraction
  No,                                     !- Account for Dedicated Outdoor Air System
  NeutralSupplyAir,                       !- Dedicated Outdoor Air System Control Strategy
  autosize,                               !- Dedicated Outdoor Air Low Setpoint Temperature for Design {C}
  autosize,                               !- Dedicated Outdoor Air High Setpoint Temperature for Design {C}
  Sensible Load Only No Latent Load,      !- Zone Load Sizing Method
  HumidityRatioDifference,                !- Zone Latent Cooling Design Supply Air Humidity Ratio Input Method
  ,                                       !- Zone Dehumidification Design Supply Air Humidity Ratio {kgWater/kgDryAir}
  0.005,                                  !- Zone Cooling Design Supply Air Humidity Ratio Difference {kgWater/kgDryAir}
  HumidityRatioDifference,                !- Zone Latent Heating Design Supply Air Humidity Ratio Input Method
  ,                                       !- Zone Humidification Design Supply Air Humidity Ratio {kgWater/kgDryAir}
  0.005,                                  !- Zone Humidification Design Supply Air Humidity Ratio Difference {kgWater/kgDryAir}
  ,                                       !- Zone Humidistat Dehumidification Set Point Schedule Name
  ,                                       !- Zone Humidistat Humidification Set Point Schedule Name
  ,                                       !- Design Zone Air Distribution Effectiveness in Cooling Mode
  ,                                       !- Design Zone Air Distribution Effectiveness in Heating Mode
  ,                                       !- Design Zone Secondary Recirculation Fraction {dimensionless}
  ,                                       !- Design Minimum Zone Ventilation Efficiency {dimensionless}
  Coincident;                             !- Sizing Option

OS:ZoneHVAC:EquipmentList,
  {fb8705ed-2a4f-4468-8e51-9287057d7fa9}, !- Handle
  Zone HVAC Equipment List 1,             !- Name
  {89192708-d056-47c2-8d4a-75c19fd5cd78}, !- Thermal Zone
  ,                                       !- Load Distribution Scheme
  {e7e1c679-e971-40a8-86e9-a0f319675cdd}, !- Zone Equipment 1
  1,                                      !- Zone Equipment Cooling Sequence 1
  1,                                      !- Zone Equipment Heating or No-Load Sequence 1
  {42e72fe7-e18e-47af-9ee0-5adb57de19a0}, !- Zone Equipment Sequential Cooling Fraction Schedule Name 1
  {b91ffad2-1369-475d-b354-e9ddb0482cf4}; !- Zone Equipment Sequential Heating Fraction Schedule Name 1

OS:AdditionalProperties,
  {5f0539fa-61d6-48cf-a660-f407512c6deb}, !- Handle
  {89192708-d056-47c2-8d4a-75c19fd5cd78}, !- Object Name
  ObjectType,                             !- Feature Name 1
  String,                                 !- Feature Data Type 1
  conditioned space;                      !- Feature Value 1

OS:Space,
  {8142fb43-062e-4d1b-8704-178f16de490d}, !- Handle
  conditioned space 1,                    !- Name
  ,                                       !- Space Type Name
  ,                                       !- Default Construction Set Name
  ,                                       !- Default Schedule Set Name
  ,                                       !- Direction of Relative North {deg}
  ,                                       !- X Origin {m}
  ,                                       !- Y Origin {m}
  ,                                       !- Z Origin {m}
  ,                                       !- Building Story Name
  {89192708-d056-47c2-8d4a-75c19fd5cd78}, !- Thermal Zone Name
  ,                                       !- Part of Total Floor Area
  ,                                       !- Design Specification Outdoor Air Object Name
  ,                                       !- Building Unit Name
  692.06373070848;                        !- Volume {m3}

OS:Schedule:Ruleset,
  {530cd336-8f16-442f-a8e8-a537ee7d16cd}, !- Handle
  heating setpoint,                       !- Name
  {9f1dba02-2226-4486-95c7-68c14ec89a13}, !- Schedule Type Limits Name
  {8d6d0cee-667f-419e-9d6e-dbc31659c875}; !- Default Day Schedule Name

OS:Schedule:Day,
  {8d6d0cee-667f-419e-9d6e-dbc31659c875}, !- Handle
  heating setpoint default day,           !- Name
  {9f1dba02-2226-4486-95c7-68c14ec89a13}, !- Schedule Type Limits Name
  ,                                       !- Interpolate to Timestep
  24,                                     !- Hour 1
  0,                                      !- Minute 1
  0;                                      !- Value Until Time 1

OS:Schedule:Rule,
  {7c0e2998-e7d9-4976-bc07-6ee3a658b37c}, !- Handle
  heating setpoint allday rule,           !- Name
  {530cd336-8f16-442f-a8e8-a537ee7d16cd}, !- Schedule Ruleset Name
  0,                                      !- Rule Order
  {a91d4a83-bc8c-4f1f-aa15-ffc9659281ed}, !- Day Schedule Name
  Yes,                                    !- Apply Sunday
  Yes,                                    !- Apply Monday
  Yes,                                    !- Apply Tuesday
  Yes,                                    !- Apply Wednesday
  Yes,                                    !- Apply Thursday
  Yes,                                    !- Apply Friday
  Yes,                                    !- Apply Saturday
  DateRange,                              !- Date Specification Type
  1,                                      !- Start Month
  1,                                      !- Start Day
  12,                                     !- End Month
  31;                                     !- End Day

OS:Schedule:Day,
  {a91d4a83-bc8c-4f1f-aa15-ffc9659281ed}, !- Handle
  heating setpoint day,                   !- Name
  {9f1dba02-2226-4486-95c7-68c14ec89a13}, !- Schedule Type Limits Name
  ,                                       !- Interpolate to Timestep
  24,                                     !- Hour 1
  0,                                      !- Minute 1
  20;                                     !- Value Until Time 1

OS:Schedule:Ruleset,
  {59ad5526-ed1f-4ef5-98c2-156822a452e9}, !- Handle
  cooling setpoint,                       !- Name
  {9f1dba02-2226-4486-95c7-68c14ec89a13}, !- Schedule Type Limits Name
  {e75331f9-d92b-4b71-9ce8-604ff02f57ae}; !- Default Day Schedule Name

OS:Schedule:Day,
  {e75331f9-d92b-4b71-9ce8-604ff02f57ae}, !- Handle
  cooling setpoint default day,           !- Name
  {9f1dba02-2226-4486-95c7-68c14ec89a13}, !- Schedule Type Limits Name
  ,                                       !- Interpolate to Timestep
  24,                                     !- Hour 1
  0,                                      !- Minute 1
  0;                                      !- Value Until Time 1

OS:Schedule:Rule,
  {901b8a01-d80a-4ee3-a683-6287d240edc7}, !- Handle
  cooling setpoint allday rule,           !- Name
  {59ad5526-ed1f-4ef5-98c2-156822a452e9}, !- Schedule Ruleset Name
  0,                                      !- Rule Order
  {54a66ab3-3844-4092-976b-e54b658bc124}, !- Day Schedule Name
  Yes,                                    !- Apply Sunday
  Yes,                                    !- Apply Monday
  Yes,                                    !- Apply Tuesday
  Yes,                                    !- Apply Wednesday
  Yes,                                    !- Apply Thursday
  Yes,                                    !- Apply Friday
  Yes,                                    !- Apply Saturday
  DateRange,                              !- Date Specification Type
  1,                                      !- Start Month
  1,                                      !- Start Day
  12,                                     !- End Month
  31;                                     !- End Day

OS:Schedule:Day,
  {54a66ab3-3844-4092-976b-e54b658bc124}, !- Handle
  cooling setpoint day,                   !- Name
  {9f1dba02-2226-4486-95c7-68c14ec89a13}, !- Schedule Type Limits Name
  ,                                       !- Interpolate to Timestep
  24,                                     !- Hour 1
  0,                                      !- Minute 1
  25.5555555555556;                       !- Value Until Time 1

OS:ThermostatSetpoint:DualSetpoint,
  {fa1a56e2-d294-42dd-8a41-1544eb054a1f}, !- Handle
  conditioned space temperature setpoint, !- Name
  {530cd336-8f16-442f-a8e8-a537ee7d16cd}, !- Heating Setpoint Temperature Schedule Name
  {59ad5526-ed1f-4ef5-98c2-156822a452e9}, !- Cooling Setpoint Temperature Schedule Name
  0;                                      !- Temperature Difference Between Cutout And Setpoint {deltaC}

OS:ScheduleTypeLimits,
  {9f1dba02-2226-4486-95c7-68c14ec89a13}, !- Handle
  Temperature,                            !- Name
  ,                                       !- Lower Limit Value
  ,                                       !- Upper Limit Value
  Continuous,                             !- Numeric Type
  Temperature;                            !- Unit Type

OS:Surface,
  {e2dd1bda-defa-43d6-b7d2-fb2aafcc49cd}, !- Handle
  Roof1,                                  !- Name
  RoofCeiling,                            !- Surface Type
  {44dd0995-0a8f-4144-b4c0-ad100cdbd576}, !- Construction Name
  {d83f4be2-68f5-40b3-992b-6c5f76faaf1d}, !- Space Name
  Outdoors,                               !- Outside Boundary Condition
  ,                                       !- Outside Boundary Condition Object
  SunExposed,                             !- Sun Exposure
  WindExposed,                            !- Wind Exposure
  ,                                       !- View Factor to Ground
  ,                                       !- Number of Vertices
  -26.9397848849634, 58.0608691618865, 2.4384, !- X,Y,Z Vertex 1 {m}
  -26.9397848849634, 46.7946431136661, 8.0715130241102, !- X,Y,Z Vertex 2 {m}
  -14.3437612381136, 46.7946431136661, 8.0715130241102, !- X,Y,Z Vertex 3 {m}
  -14.3437612381136, 58.0608691618865, 2.4384; !- X,Y,Z Vertex 4 {m}

OS:AdditionalProperties,
  {2b289c9d-c5f3-4cd0-be40-27441deffed3}, !- Handle
  {e2dd1bda-defa-43d6-b7d2-fb2aafcc49cd}, !- Object Name
  Length,                                 !- Feature Name 1
  Double,                                 !- Feature Data Type 1
  41.325536899113608,                     !- Feature Value 1
  Width,                                  !- Feature Name 2
  Double,                                 !- Feature Data Type 2
  41.325536899113601,                     !- Feature Value 2
  Azimuth,                                !- Feature Name 3
  Integer,                                !- Feature Data Type 3
  0,                                      !- Feature Value 3
  Tilt,                                   !- Feature Name 4
  Double,                                 !- Feature Data Type 4
  0.5,                                    !- Feature Value 4
  SurfaceType,                            !- Feature Name 5
  String,                                 !- Feature Data Type 5
  Roof;                                   !- Feature Value 5

OS:ThermalZone,
  {7a4df27e-ad45-41ec-bbe2-835cdefef066}, !- Handle
  attic - vented,                         !- Name
  1,                                      !- Multiplier
  ,                                       !- Ceiling Height {m}
  356.390921899745,                       !- Volume {m3}
  ,                                       !- Floor Area {m2}
  ,                                       !- Zone Inside Convection Algorithm
  ,                                       !- Zone Outside Convection Algorithm
  ,                                       !- Zone Conditioning Equipment List Name
  {bc876d89-7d02-4401-a8d3-55f156c26b6a}, !- Zone Air Inlet Port List
  {6f222691-e1e6-4487-8d60-e9e88339e503}, !- Zone Air Exhaust Port List
  {92416254-7fd7-41f8-af9d-a4b22e948a87}, !- Zone Air Node Name
  {c66f537b-966e-4282-928c-ff9122a060bd}, !- Zone Return Air Port List
  ,                                       !- Primary Daylighting Control Name
  ,                                       !- Fraction of Zone Controlled by Primary Daylighting Control
  ,                                       !- Secondary Daylighting Control Name
  ,                                       !- Fraction of Zone Controlled by Secondary Daylighting Control
  ,                                       !- Illuminance Map Name
  ,                                       !- Group Rendering Name
  ,                                       !- Thermostat Name
  No;                                     !- Use Ideal Air Loads

OS:Node,
  {1bd0f052-e3dc-48a4-96b7-206875f6e5ef}, !- Handle
  Node 2,                                 !- Name
  {92416254-7fd7-41f8-af9d-a4b22e948a87}, !- Inlet Port
  ;                                       !- Outlet Port

OS:Connection,
  {92416254-7fd7-41f8-af9d-a4b22e948a87}, !- Handle
  {7a4df27e-ad45-41ec-bbe2-835cdefef066}, !- Source Object
  11,                                     !- Outlet Port
  {1bd0f052-e3dc-48a4-96b7-206875f6e5ef}, !- Target Object
  2;                                      !- Inlet Port

OS:PortList,
  {bc876d89-7d02-4401-a8d3-55f156c26b6a}, !- Handle
  {7a4df27e-ad45-41ec-bbe2-835cdefef066}; !- HVAC Component

OS:PortList,
  {6f222691-e1e6-4487-8d60-e9e88339e503}, !- Handle
  {7a4df27e-ad45-41ec-bbe2-835cdefef066}; !- HVAC Component

OS:PortList,
  {c66f537b-966e-4282-928c-ff9122a060bd}, !- Handle
  {7a4df27e-ad45-41ec-bbe2-835cdefef066}; !- HVAC Component

OS:Sizing:Zone,
  {fd5017bd-0b27-4160-a32d-d1968f66efab}, !- Handle
  {7a4df27e-ad45-41ec-bbe2-835cdefef066}, !- Zone or ZoneList Name
  SupplyAirTemperature,                   !- Zone Cooling Design Supply Air Temperature Input Method
  14,                                     !- Zone Cooling Design Supply Air Temperature {C}
  11.11,                                  !- Zone Cooling Design Supply Air Temperature Difference {deltaC}
  SupplyAirTemperature,                   !- Zone Heating Design Supply Air Temperature Input Method
  40,                                     !- Zone Heating Design Supply Air Temperature {C}
  11.11,                                  !- Zone Heating Design Supply Air Temperature Difference {deltaC}
  0.0085,                                 !- Zone Cooling Design Supply Air Humidity Ratio {kg-H2O/kg-air}
  0.008,                                  !- Zone Heating Design Supply Air Humidity Ratio {kg-H2O/kg-air}
  ,                                       !- Zone Heating Sizing Factor
  ,                                       !- Zone Cooling Sizing Factor
  DesignDay,                              !- Cooling Design Air Flow Method
  ,                                       !- Cooling Design Air Flow Rate {m3/s}
  ,                                       !- Cooling Minimum Air Flow per Zone Floor Area {m3/s-m2}
  ,                                       !- Cooling Minimum Air Flow {m3/s}
  ,                                       !- Cooling Minimum Air Flow Fraction
  DesignDay,                              !- Heating Design Air Flow Method
  ,                                       !- Heating Design Air Flow Rate {m3/s}
  ,                                       !- Heating Maximum Air Flow per Zone Floor Area {m3/s-m2}
  ,                                       !- Heating Maximum Air Flow {m3/s}
  ,                                       !- Heating Maximum Air Flow Fraction
  No,                                     !- Account for Dedicated Outdoor Air System
  NeutralSupplyAir,                       !- Dedicated Outdoor Air System Control Strategy
  autosize,                               !- Dedicated Outdoor Air Low Setpoint Temperature for Design {C}
  autosize,                               !- Dedicated Outdoor Air High Setpoint Temperature for Design {C}
  Sensible Load Only No Latent Load,      !- Zone Load Sizing Method
  HumidityRatioDifference,                !- Zone Latent Cooling Design Supply Air Humidity Ratio Input Method
  ,                                       !- Zone Dehumidification Design Supply Air Humidity Ratio {kgWater/kgDryAir}
  0.005,                                  !- Zone Cooling Design Supply Air Humidity Ratio Difference {kgWater/kgDryAir}
  HumidityRatioDifference,                !- Zone Latent Heating Design Supply Air Humidity Ratio Input Method
  ,                                       !- Zone Humidification Design Supply Air Humidity Ratio {kgWater/kgDryAir}
  0.005,                                  !- Zone Humidification Design Supply Air Humidity Ratio Difference {kgWater/kgDryAir}
  ,                                       !- Zone Humidistat Dehumidification Set Point Schedule Name
  ,                                       !- Zone Humidistat Humidification Set Point Schedule Name
  ,                                       !- Design Zone Air Distribution Effectiveness in Cooling Mode
  ,                                       !- Design Zone Air Distribution Effectiveness in Heating Mode
  ,                                       !- Design Zone Secondary Recirculation Fraction {dimensionless}
  ,                                       !- Design Minimum Zone Ventilation Efficiency {dimensionless}
  Coincident;                             !- Sizing Option

OS:ZoneHVAC:EquipmentList,
  {b8b32ecd-37a1-4c30-88d9-b23f7a61e74c}, !- Handle
  Zone HVAC Equipment List 2,             !- Name
  {7a4df27e-ad45-41ec-bbe2-835cdefef066}; !- Thermal Zone

OS:AdditionalProperties,
  {a2f0369e-fab1-4564-83cc-6c5fc64d5e8b}, !- Handle
  {7a4df27e-ad45-41ec-bbe2-835cdefef066}, !- Object Name
  ObjectType,                             !- Feature Name 1
  String,                                 !- Feature Data Type 1
  attic - vented;                         !- Feature Value 1

OS:Space,
  {d83f4be2-68f5-40b3-992b-6c5f76faaf1d}, !- Handle
  attic - vented 1,                       !- Name
  ,                                       !- Space Type Name
  ,                                       !- Default Construction Set Name
  ,                                       !- Default Schedule Set Name
  ,                                       !- Direction of Relative North {deg}
  ,                                       !- X Origin {m}
  ,                                       !- Y Origin {m}
  ,                                       !- Z Origin {m}
  ,                                       !- Building Story Name
  {7a4df27e-ad45-41ec-bbe2-835cdefef066}, !- Thermal Zone Name
  ,                                       !- Part of Total Floor Area
  ,                                       !- Design Specification Outdoor Air Object Name
  ,                                       !- Building Unit Name
  356.390921899745;                       !- Volume {m3}

OS:Material,
  {b1e12c66-9a87-4e59-b77a-4391ebba3fe3}, !- Handle
  asphalt or fiberglass shingles,         !- Name
  Rough,                                  !- Roughness
  0.00635,                                !- Thickness {m}
  0.162714,                               !- Conductivity {W/m-K}
  1121.4,                                 !- Density {kg/m3}
  1465.45,                                !- Specific Heat {J/kg-K}
  0.9,                                    !- Thermal Absorptance
  0.85,                                   !- Solar Absorptance