
OS:Version,
  {117ac16a-23b9-4ad5-b038-6defc8255c87}, !- Handle
  3.9.0;                                  !- Version Identifier

OS:SimulationControl,
  {33b8b4d3-dbc0-4fc2-ba01-34751a7df559}, !- Handle
  ,                                       !- Do Zone Sizing Calculation
  ,                                       !- Do System Sizing Calculation
  ,                                       !- Do Plant Sizing Calculation
  No;                                     !- Run Simulation for Sizing Periods

OS:Timestep,
  {65423757-54a4-4cda-85fc-719e82cfeb30}, !- Handle
  1;                                      !- Number of Timesteps per Hour

OS:ShadowCalculation,
  {a46160cb-bce2-4eee-a82a-037ff67ae018}, !- Handle
  PolygonClipping,                        !- Shading Calculation Method
  ,                                       !- Shading Calculation Update Frequency Method
  20,                                     !- Shading Calculation Update Frequency
  200,                                    !- Maximum Figures in Shadow Overlap Calculations
  ,                                       !- Polygon Clipping Algorithm
  512,                                    !- Pixel Counting Resolution
  ,                                       !- Sky Diffuse Modeling Algorithm
  No,                                     !- Output External Shading Calculation Results
  No,                                     !- Disable Self-Shading Within Shading Zone Groups
  No;                                     !- Disable Self-Shading From Shading Zone Groups to Other Zones

OS:SurfaceConvectionAlgorithm:Outside,
  {6906ee55-1b9e-469a-88e7-91b11a7ffe80}, !- Handle
  DOE-2;                                  !- Algorithm

OS:SurfaceConvectionAlgorithm:Inside,
  {a4009ad8-cb1c-4cbc-90b2-3b5cbc7db1a4}, !- Handle
  TARP;                                   !- Algorithm

OS:ZoneCapacitanceMultiplier:ResearchSpecial,
  {243a51ad-06d6-4d92-b39f-8372e75a9e13}, !- Handle
  7,                                      !- Temperature Capacity Multiplier
  15,                                     !- Humidity Capacity Multiplier
  ;                                       !- Carbon Dioxide Capacity Multiplier

OS:ConvergenceLimits,
  {2e7f8aa1-5082-424d-9c9e-52a7bb6700a1}, !- Handle
  0;                                      !- Minimum System Timestep {minutes}

OS:RunPeriod,
  {8fb4270c-4bf1-47d9-b0ea-88cc1f3cdb7f}, !- Handle
  Run Period 1,                           !- Name
  1,                                      !- Begin Month
  1,                                      !- Begin Day of Month
  12,                                     !- End Month
  31,                                     !- End Day of Month
  ,                                       !- Use Weather File Holidays and Special Days
  ,                                       !- Use Weather File Daylight Saving Period
  ,                                       !- Apply Weekend Holiday Rule
  ,                                       !- Use Weather File Rain Indicators
  ,                                       !- Use Weather File Snow Indicators
  ;                                       !- Number of Times Runperiod to be Repeated

OS:PerformancePrecisionTradeoffs,
  {528c7786-121d-4322-83b1-9a709b7cbcbd}, !- Handle
  ,                                       !- Use Coil Direct Solutions
  CarrollMRT;                             !- Zone Radiant Exchange Algorithm

OS:WeatherFile,
  {031601be-c08a-4a07-837e-05fc62750ad6}, !- Handle
  Buffalo Niagara Intl Ap,                !- City
  NY,                                     !- State Province Region
  USA,                                    !- Country
  TMY3,                                   !- Data Source
  725280,                                 !- WMO Number
  42.93,                                  !- Latitude {deg}
  -78.73,                                 !- Longitude {deg}
  -5,                                     !- Time Zone {hr}
  215,                                    !- Elevation {m}
  /Users/nmoore/github/urbanopt-example-geojson-project/example_project/weather/USA_NY_Buffalo-Greater.Buffalo.Intl.AP.725280_TMY3.epw, !- Url
  6B50E0FF,                               !- Checksum
  ,                                       !- Start Date Actual Year
  Sunday;                                 !- Start Day of Week

OS:YearDescription,
  {3e29efb2-4bc4-4aef-b935-db3d91933049}, !- Handle
  2007,                                   !- Calendar Year
  ,                                       !- Day of Week for Start Day
  ;                                       !- Is Leap Year

OS:Site,
  {9e483b0f-79da-40cf-b01c-e439097c8086}, !- Handle
  Buffalo Niagara Intl Ap_NY,             !- Name
  42.93,                                  !- Latitude {deg}
  -78.73,                                 !- Longitude {deg}
  -5,                                     !- Time Zone {hr}
  215,                                    !- Elevation {m}
  Suburbs,                                !- Terrain
  Yes;                                    !- Keep Site Location Information

OS:RunPeriodControl:DaylightSavingTime,
  {ec27bcd3-bbb4-4f9d-a65c-49ba3475aa0f}, !- Handle
  Mar 12,                                 !- Start Date
  Nov 5;                                  !- End Date

OS:Site:GroundTemperature:Shallow,
  {b2a18f10-1cec-4fdf-96e7-8f904f563e9c}, !- Handle
  4.30207395723828,                       !- January Surface Ground Temperature {C}
  2.29327249652502,                       !- February Surface Ground Temperature {C}
  2.13240047156047,                       !- March Surface Ground Temperature {C}
  3.08567940719286,                       !- April Surface Ground Temperature {C}
  6.91256312497526,                       !- May Surface Ground Temperature {C}
  10.7216195949507,                       !- June Surface Ground Temperature {C}
  14.0238679822574,                       !- July Surface Ground Temperature {C}
  16.1157611184724,                       !- August Surface Ground Temperature {C}
  16.2934789303462,                       !- September Surface Ground Temperature {C}
  14.5920754632847,                       !- October Surface Ground Temperature {C}
  11.374036348653,                        !- November Surface Ground Temperature {C}
  7.68182621661674;                       !- December Surface Ground Temperature {C}

OS:ThermalZone,
  {051c196f-0bfc-4fbd-8d14-8dd9abb29acc}, !- Handle
  conditioned space,                      !- Name
  1,                                      !- Multiplier
  ,                                       !- Ceiling Height {m}
  692.06373070848,                        !- Volume {m3}
  ,                                       !- Floor Area {m2}
  ,                                       !- Zone Inside Convection Algorithm
  ,                                       !- Zone Outside Convection Algorithm
  ,                                       !- Zone Conditioning Equipment List Name
  {dd0dc2f9-2eb2-423a-92ea-ef0f127adab5}, !- Zone Air Inlet Port List
  {461c7d53-4381-4f8c-90df-f2c393aa7bf9}, !- Zone Air Exhaust Port List
  {15fe83b6-952a-4549-920c-0a4868b5fdb4}, !- Zone Air Node Name
  {d213ca49-abce-4753-a663-15de75a9f963}, !- Zone Return Air Port List
  ,                                       !- Primary Daylighting Control Name
  ,                                       !- Fraction of Zone Controlled by Primary Daylighting Control
  ,                                       !- Secondary Daylighting Control Name
  ,                                       !- Fraction of Zone Controlled by Secondary Daylighting Control
  ,                                       !- Illuminance Map Name
  ,                                       !- Group Rendering Name
  {62ca01b4-8a20-49d0-9dd6-e3e9fbd62720}, !- Thermostat Name
  No;                                     !- Use Ideal Air Loads

OS:Node,
  {79011ffc-ddb6-446b-a6a3-ff920aff504b}, !- Handle
  Node 1,                                 !- Name
  {15fe83b6-952a-4549-920c-0a4868b5fdb4}, !- Inlet Port
  ;                                       !- Outlet Port

OS:Connection,
  {15fe83b6-952a-4549-920c-0a4868b5fdb4}, !- Handle
  {051c196f-0bfc-4fbd-8d14-8dd9abb29acc}, !- Source Object
  11,                                     !- Outlet Port
  {79011ffc-ddb6-446b-a6a3-ff920aff504b}, !- Target Object
  2;                                      !- Inlet Port

OS:PortList,
  {dd0dc2f9-2eb2-423a-92ea-ef0f127adab5}, !- Handle
  {051c196f-0bfc-4fbd-8d14-8dd9abb29acc}, !- HVAC Component
  {6543669c-aad9-4192-8467-93bfa92349b8}; !- Port 1

OS:PortList,
  {461c7d53-4381-4f8c-90df-f2c393aa7bf9}, !- Handle
  {051c196f-0bfc-4fbd-8d14-8dd9abb29acc}; !- HVAC Component

OS:PortList,
  {d213ca49-abce-4753-a663-15de75a9f963}, !- Handle
  {051c196f-0bfc-4fbd-8d14-8dd9abb29acc}, !- HVAC Component
  {f6586255-d793-4110-832a-6a8096a19bd0}; !- Port 1

OS:Sizing:Zone,
  {baa32784-c9fb-412f-9591-bcc3c547ec01}, !- Handle
  {051c196f-0bfc-4fbd-8d14-8dd9abb29acc}, !- Zone or ZoneList Name
  SupplyAirTemperature,                   !- Zone Cooling Design Supply Air Temperature Input Method
  14,                                     !- Zone Cooling Design Supply Air Temperature {C}
  11.11,                                  !- Zone Cooling Design Supply Air Temperature Difference {deltaC}
  SupplyAirTemperature,                   !- Zone Heating Design Supply Air Temperature Input Method
  40,                                     !- Zone Heating Design Supply Air Temperature {C}
  11.11,                                  !- Zone Heating Design Supply Air Temperature Difference {deltaC}
  0.0085,                                 !- Zone Cooling Design Supply Air Humidity Ratio {kg-H2O/kg-air}
  0.008,                                  !- Zone Heating Design Supply Air Humidity Ratio {kg-H2O/kg-air}
  ,                                       !- Zone Heating Sizing Factor
  ,                                       !- Zone Cooling Sizing Factor
  DesignDay,                              !- Cooling Design Air Flow Method
  ,                                       !- Cooling Design Air Flow Rate {m3/s}
  ,                                       !- Cooling Minimum Air Flow per Zone Floor Area {m3/s-m2}
  ,                                       !- Cooling Minimum Air Flow {m3/s}
  ,                                       !- Cooling Minimum Air Flow Fraction
  DesignDay,                              !- Heating Design Air Flow Method
  ,                                       !- Heating Design Air Flow Rate {m3/s}
  ,                                       !- Heating Maximum Air Flow per Zone Floor Area {m3/s-m2}
  ,                                       !- Heating Maximum Air Flow {m3/s}
  ,                                       !- Heating Maximum Air Flow Fraction
  No,                                     !- Account for Dedicated Outdoor Air System
  NeutralSupplyAir,                       !- Dedicated Outdoor Air System Control Strategy
  autosize,                               !- Dedicated Outdoor Air Low Setpoint Temperature for Design {C}
  autosize,                               !- Dedicated Outdoor Air High Setpoint Temperature for Design {C}
  Sensible Load Only No Latent Load,      !- Zone Load Sizing Method
  HumidityRatioDifference,                !- Zone Latent Cooling Design Supply Air Humidity Ratio Input Method
  ,                                       !- Zone Dehumidification Design Supply Air Humidity Ratio {kgWater/kgDryAir}
  0.005,                                  !- Zone Cooling Design Supply Air Humidity Ratio Difference {kgWater/kgDryAir}
  HumidityRatioDifference,                !- Zone Latent Heating Design Supply Air Humidity Ratio Input Method
  ,                                       !- Zone Humidification Design Supply Air Humidity Ratio {kgWater/kgDryAir}
  0.005,                                  !- Zone Humidification Design Supply Air Humidity Ratio Difference {kgWater/kgDryAir}
  ,                                       !- Zone Humidistat Dehumidification Set Point Schedule Name
  ,                                       !- Zone Humidistat Humidification Set Point Schedule Name
  ,                                       !- Design Zone Air Distribution Effectiveness in Cooling Mode
  ,                                       !- Design Zone Air Distribution Effectiveness in Heating Mode
  ,                                       !- Design Zone Secondary Recirculation Fraction {dimensionless}
  ,                                       !- Design Minimum Zone Ventilation Efficiency {dimensionless}
  Coincident;                             !- Sizing Option

OS:ZoneHVAC:EquipmentList,
  {0d8e73b6-1c20-41fc-ae42-415e1103cf4a}, !- Handle
  Zone HVAC Equipment List 1,             !- Name
  {051c196f-0bfc-4fbd-8d14-8dd9abb29acc}, !- Thermal Zone
  ,                                       !- Load Distribution Scheme
  {5d058a95-7ca6-4950-95bd-e3467dc39770}, !- Zone Equipment 1
  1,                                      !- Zone Equipment Cooling Sequence 1
  1,                                      !- Zone Equipment Heating or No-Load Sequence 1
  {45622be3-6a39-40d5-99a1-78483c57bd67}, !- Zone Equipment Sequential Cooling Fraction Schedule Name 1
  {ba05bb61-512f-4310-ad6e-3edba6cb67b8}; !- Zone Equipment Sequential Heating Fraction Schedule Name 1

OS:AdditionalProperties,
  {72b88f5c-f63c-4911-9667-ec643cb7952b}, !- Handle
  {051c196f-0bfc-4fbd-8d14-8dd9abb29acc}, !- Object Name
  ObjectType,                             !- Feature Name 1
  String,                                 !- Feature Data Type 1
  conditioned space;                      !- Feature Value 1

OS:Space,
  {d2276e60-a5c4-4e31-a062-57f12226a243}, !- Handle
  conditioned space 1,                    !- Name
  ,                                       !- Space Type Name
  ,                                       !- Default Construction Set Name
  ,                                       !- Default Schedule Set Name
  ,                                       !- Direction of Relative North {deg}
  ,                                       !- X Origin {m}
  ,                                       !- Y Origin {m}
  ,                                       !- Z Origin {m}
  ,                                       !- Building Story Name
  {051c196f-0bfc-4fbd-8d14-8dd9abb29acc}, !- Thermal Zone Name
  ,                                       !- Part of Total Floor Area
  ,                                       !- Design Specification Outdoor Air Object Name
  ,                                       !- Building Unit Name
  692.06373070848;                        !- Volume {m3}

OS:Schedule:Ruleset,
  {ab35fba0-4625-4163-b7cd-9407db959c43}, !- Handle
  heating setpoint,                       !- Name
  {0aa5aa5a-55fa-4f1c-84f6-34971adcdb19}, !- Schedule Type Limits Name
  {9926d691-fff8-4834-b209-dc2c6666ec18}; !- Default Day Schedule Name

OS:Schedule:Day,
  {9926d691-fff8-4834-b209-dc2c6666ec18}, !- Handle
  heating setpoint default day,           !- Name
  {0aa5aa5a-55fa-4f1c-84f6-34971adcdb19}, !- Schedule Type Limits Name
  ,                                       !- Interpolate to Timestep
  24,                                     !- Hour 1
  0,                                      !- Minute 1
  0;                                      !- Value Until Time 1

OS:Schedule:Rule,
  {f1cde3b5-bfe5-4403-9c52-86bfd70ef84a}, !- Handle
  heating setpoint allday rule,           !- Name
  {ab35fba0-4625-4163-b7cd-9407db959c43}, !- Schedule Ruleset Name
  0,                                      !- Rule Order
  {13bcb882-1147-42d9-bb4f-ecfb6da66c53}, !- Day Schedule Name
  Yes,                                    !- Apply Sunday
  Yes,                                    !- Apply Monday
  Yes,                                    !- Apply Tuesday
  Yes,                                    !- Apply Wednesday
  Yes,                                    !- Apply Thursday
  Yes,                                    !- Apply Friday
  Yes,                                    !- Apply Saturday
  DateRange,                              !- Date Specification Type
  1,                                      !- Start Month
  1,                                      !- Start Day
  12,                                     !- End Month
  31;                                     !- End Day

OS:Schedule:Day,
  {13bcb882-1147-42d9-bb4f-ecfb6da66c53}, !- Handle
  heating setpoint day,                   !- Name
  {0aa5aa5a-55fa-4f1c-84f6-34971adcdb19}, !- Schedule Type Limits Name
  ,                                       !- Interpolate to Timestep
  24,                                     !- Hour 1
  0,                                      !- Minute 1
  20;                                     !- Value Until Time 1

OS:Schedule:Ruleset,
  {d9f5cecd-97af-416e-a052-5cec25420fa6}, !- Handle
  cooling setpoint,                       !- Name
  {0aa5aa5a-55fa-4f1c-84f6-34971adcdb19}, !- Schedule Type Limits Name
  {30d8eb20-9105-4a18-a945-d428a4bf5738}; !- Default Day Schedule Name

OS:Schedule:Day,
  {30d8eb20-9105-4a18-a945-d428a4bf5738}, !- Handle
  cooling setpoint default day,           !- Name
  {0aa5aa5a-55fa-4f1c-84f6-34971adcdb19}, !- Schedule Type Limits Name
  ,                                       !- Interpolate to Timestep
  24,                                     !- Hour 1
  0,                                      !- Minute 1
  0;                                      !- Value Until Time 1

OS:Schedule:Rule,
  {68f1786b-262b-4c92-a039-745dc669757e}, !- Handle
  cooling setpoint allday rule,           !- Name
  {d9f5cecd-97af-416e-a052-5cec25420fa6}, !- Schedule Ruleset Name
  0,                                      !- Rule Order
  {0f8d24b3-043c-43a1-ad07-ee1f048f3f59}, !- Day Schedule Name
  Yes,                                    !- Apply Sunday
  Yes,                                    !- Apply Monday
  Yes,                                    !- Apply Tuesday
  Yes,                                    !- Apply Wednesday
  Yes,                                    !- Apply Thursday
  Yes,                                    !- Apply Friday
  Yes,                                    !- Apply Saturday
  DateRange,                              !- Date Specification Type
  1,                                      !- Start Month
  1,                                      !- Start Day
  12,                                     !- End Month
  31;                                     !- End Day

OS:Schedule:Day,
  {0f8d24b3-043c-43a1-ad07-ee1f048f3f59}, !- Handle
  cooling setpoint day,                   !- Name
  {0aa5aa5a-55fa-4f1c-84f6-34971adcdb19}, !- Schedule Type Limits Name
  ,                                       !- Interpolate to Timestep
  24,                                     !- Hour 1
  0,                                      !- Minute 1
  25.5555555555556;                       !- Value Until Time 1

OS:ThermostatSetpoint:DualSetpoint,
  {62ca01b4-8a20-49d0-9dd6-e3e9fbd62720}, !- Handle
  conditioned space temperature setpoint, !- Name
  {ab35fba0-4625-4163-b7cd-9407db959c43}, !- Heating Setpoint Temperature Schedule Name
  {d9f5cecd-97af-416e-a052-5cec25420fa6}, !- Cooling Setpoint Temperature Schedule Name
  0;                                      !- Temperature Difference Between Cutout And Setpoint {deltaC}

OS:ScheduleTypeLimits,
  {0aa5aa5a-55fa-4f1c-84f6-34971adcdb19}, !- Handle
  Temperature,                            !- Name
  ,                                       !- Lower Limit Value
  ,                                       !- Upper Limit Value
  Continuous,                             !- Numeric Type
  Temperature;                            !- Unit Type

OS:Surface,
  {bcada247-531d-4dc4-9054-bd338ae3d457}, !- Handle
  Roof1,                                  !- Name
  RoofCeiling,                            !- Surface Type
  {5362c1c2-2c00-46d1-99f0-fc4f21427013}, !- Construction Name
  {a747ad44-2884-4474-9d3c-93b4216de493}, !- Space Name
  Outdoors,                               !- Outside Boundary Condition
  ,                                       !- Outside Boundary Condition Object
  SunExposed,                             !- Sun Exposure
  WindExposed,                            !- Wind Exposure
  ,                                       !- View Factor to Ground
  ,                                       !- Number of Vertices
  -26.9347048849634, 58.0557891618865, 2.4384, !- X,Y,Z Vertex 1 {m}
  -26.9347048849634, 46.7895631136661, 8.0715130241102, !- X,Y,Z Vertex 2 {m}
  -14.3386812381136, 46.7895631136661, 8.0715130241102, !- X,Y,Z Vertex 3 {m}
  -14.3386812381136, 58.0557891618865, 2.4384; !- X,Y,Z Vertex 4 {m}

OS:AdditionalProperties,
  {91a63c2a-e8ae-421c-b436-9d59e2213473}, !- Handle
  {bcada247-531d-4dc4-9054-bd338ae3d457}, !- Object Name
  Length,                                 !- Feature Name 1
  Double,                                 !- Feature Data Type 1
  41.325536899113608,                     !- Feature Value 1
  Width,                                  !- Feature Name 2
  Double,                                 !- Feature Data Type 2
  41.325536899113601,                     !- Feature Value 2
  Azimuth,                                !- Feature Name 3
  Integer,                                !- Feature Data Type 3
  0,                                      !- Feature Value 3
  Tilt,                                   !- Feature Name 4
  Double,                                 !- Feature Data Type 4
  0.5,                                    !- Feature Value 4
  SurfaceType,                            !- Feature Name 5
  String,                                 !- Feature Data Type 5
  Roof;                                   !- Feature Value 5

OS:ThermalZone,
  {b0000dee-e4f9-4b9f-a3c6-5ab88e18f42c}, !- Handle
  attic - vented,                         !- Name
  1,                                      !- Multiplier
  ,                                       !- Ceiling Height {m}
  356.389957095237,                       !- Volume {m3}
  ,                                       !- Floor Area {m2}
  ,                                       !- Zone Inside Convection Algorithm
  ,                                       !- Zone Outside Convection Algorithm
  ,                                       !- Zone Conditioning Equipment List Name
  {01a40966-fe10-4d86-afd4-698f3a2e0c26}, !- Zone Air Inlet Port List
  {5534cba8-8db4-47df-ace2-af9ce878db55}, !- Zone Air Exhaust Port List
  {7b3b6acd-26dd-42b6-beda-4cde160a4b48}, !- Zone Air Node Name
  {7780444d-3ee5-4381-85ee-1421e40470da}, !- Zone Return Air Port List
  ,                                       !- Primary Daylighting Control Name
  ,                                       !- Fraction of Zone Controlled by Primary Daylighting Control
  ,                                       !- Secondary Daylighting Control Name
  ,                                       !- Fraction of Zone Controlled by Secondary Daylighting Control
  ,                                       !- Illuminance Map Name
  ,                                       !- Group Rendering Name
  ,                                       !- Thermostat Name
  No;                                     !- Use Ideal Air Loads

OS:Node,
  {ca38796f-da07-4b6c-b55f-bcf2921fc849}, !- Handle
  Node 2,                                 !- Name
  {7b3b6acd-26dd-42b6-beda-4cde160a4b48}, !- Inlet Port
  ;                                       !- Outlet Port

OS:Connection,
  {7b3b6acd-26dd-42b6-beda-4cde160a4b48}, !- Handle
  {b0000dee-e4f9-4b9f-a3c6-5ab88e18f42c}, !- Source Object
  11,                                     !- Outlet Port
  {ca38796f-da07-4b6c-b55f-bcf2921fc849}, !- Target Object
  2;                                      !- Inlet Port

OS:PortList,
  {01a40966-fe10-4d86-afd4-698f3a2e0c26}, !- Handle
  {b0000dee-e4f9-4b9f-a3c6-5ab88e18f42c}; !- HVAC Component

OS:PortList,
  {5534cba8-8db4-47df-ace2-af9ce878db55}, !- Handle
  {b0000dee-e4f9-4b9f-a3c6-5ab88e18f42c}; !- HVAC Component

OS:PortList,
  {7780444d-3ee5-4381-85ee-1421e40470da}, !- Handle
  {b0000dee-e4f9-4b9f-a3c6-5ab88e18f42c}; !- HVAC Component

OS:Sizing:Zone,
  {4710b8ff-8597-4675-a686-04ce56942c00}, !- Handle
  {b0000dee-e4f9-4b9f-a3c6-5ab88e18f42c}, !- Zone or ZoneList Name
  SupplyAirTemperature,                   !- Zone Cooling Design Supply Air Temperature Input Method
  14,                                     !- Zone Cooling Design Supply Air Temperature {C}
  11.11,                                  !- Zone Cooling Design Supply Air Temperature Difference {deltaC}
  SupplyAirTemperature,                   !- Zone Heating Design Supply Air Temperature Input Method
  40,                                     !- Zone Heating Design Supply Air Temperature {C}
  11.11,                                  !- Zone Heating Design Supply Air Temperature Difference {deltaC}
  0.0085,                                 !- Zone Cooling Design Supply Air Humidity Ratio {kg-H2O/kg-air}
  0.008,                                  !- Zone Heating Design Supply Air Humidity Ratio {kg-H2O/kg-air}
  ,                                       !- Zone Heating Sizing Factor
  ,                                       !- Zone Cooling Sizing Factor
  DesignDay,                              !- Cooling Design Air Flow Method
  ,                                       !- Cooling Design Air Flow Rate {m3/s}
  ,                                       !- Cooling Minimum Air Flow per Zone Floor Area {m3/s-m2}
  ,                                       !- Cooling Minimum Air Flow {m3/s}
  ,                                       !- Cooling Minimum Air Flow Fraction
  DesignDay,                              !- Heating Design Air Flow Method
  ,                                       !- Heating Design Air Flow Rate {m3/s}
  ,                                       !- Heating Maximum Air Flow per Zone Floor Area {m3/s-m2}
  ,                                       !- Heating Maximum Air Flow {m3/s}
  ,                                       !- Heating Maximum Air Flow Fraction
  No,                                     !- Account for Dedicated Outdoor Air System
  NeutralSupplyAir,                       !- Dedicated Outdoor Air System Control Strategy
  autosize,                               !- Dedicated Outdoor Air Low Setpoint Temperature for Design {C}
  autosize,                               !- Dedicated Outdoor Air High Setpoint Temperature for Design {C}
  Sensible Load Only No Latent Load,      !- Zone Load Sizing Method
  HumidityRatioDifference,                !- Zone Latent Cooling Design Supply Air Humidity Ratio Input Method
  ,                                       !- Zone Dehumidification Design Supply Air Humidity Ratio {kgWater/kgDryAir}
  0.005,                                  !- Zone Cooling Design Supply Air Humidity Ratio Difference {kgWater/kgDryAir}
  HumidityRatioDifference,                !- Zone Latent Heating Design Supply Air Humidity Ratio Input Method
  ,                                       !- Zone Humidification Design Supply Air Humidity Ratio {kgWater/kgDryAir}
  0.005,                                  !- Zone Humidification Design Supply Air Humidity Ratio Difference {kgWater/kgDryAir}
  ,                                       !- Zone Humidistat Dehumidification Set Point Schedule Name
  ,                                       !- Zone Humidistat Humidification Set Point Schedule Name
  ,                                       !- Design Zone Air Distribution Effectiveness in Cooling Mode
  ,                                       !- Design Zone Air Distribution Effectiveness in Heating Mode
  ,                                       !- Design Zone Secondary Recirculation Fraction {dimensionless}
  ,                                       !- Design Minimum Zone Ventilation Efficiency {dimensionless}
  Coincident;                             !- Sizing Option

OS:ZoneHVAC:EquipmentList,
  {e921ea0c-b122-423a-ab9c-842105100eef}, !- Handle
  Zone HVAC Equipment List 2,             !- Name
  {b0000dee-e4f9-4b9f-a3c6-5ab88e18f42c}; !- Thermal Zone

OS:AdditionalProperties,
  {b519b3ef-e32b-4b8c-a12b-013c58384a93}, !- Handle
  {b0000dee-e4f9-4b9f-a3c6-5ab88e18f42c}, !- Object Name
  ObjectType,                             !- Feature Name 1
  String,                                 !- Feature Data Type 1
  attic - vented;                         !- Feature Value 1

OS:Space,
  {a747ad44-2884-4474-9d3c-93b4216de493}, !- Handle
  attic - vented 1,                       !- Name
  ,                                       !- Space Type Name
  ,                                       !- Default Construction Set Name
  ,                                       !- Default Schedule Set Name
  ,                                       !- Direction of Relative North {deg}
  ,                                       !- X Origin {m}
  ,                                       !- Y Origin {m}
  ,                                       !- Z Origin {m}
  ,                                       !- Building Story Name
  {b0000dee-e4f9-4b9f-a3c6-5ab88e18f42c}, !- Thermal Zone Name
  ,                                       !- Part of Total Floor Area
  ,                                       !- Design Specification Outdoor Air Object Name
  ,                                       !- Building Unit Name
  356.389957095237;                       !- Volume {m3}

OS:Material,
  {8507d173-4949-44ab-969b-c3edd7a94b1a}, !- Handle
  asphalt or fiberglass shingles,         !- Name
  Rough,                                  !- Roughness
  0.00635,                                !- Thickness {m}
  0.162714,                               !- Conductivity {W/m-K}
  1121.4,                                 !- Density {kg/m3}
  1465.45,                                !- Specific Heat {J/kg-K}
  0.9,                                    !- Thermal Absorptance
  0.85,                                   !- Solar Absorptance